8AZR
  PyMOL2.5          3D                             0

 32 36  0  0  0  0  0  0  0  0999 V2000
   15.7084    1.6569    4.9428 C   0  0  0  0  0  0  0  0  0  0  0  0
   16.2939    1.9182    6.3219 C   0  0  0  0  0  0  0  0  0  0  0  0
   17.7757    1.5677    6.3468 C   0  0  0  0  0  0  0  0  0  0  0  0
   18.0388    0.0580    6.1328 C   0  0  0  0  0  0  0  0  0  0  0  0
   16.1458    0.3026    4.4709 C   0  0  0  0  0  0  0  0  0  0  0  0
   17.1748   -0.4207    4.9854 C   0  0  0  0  0  0  0  0  0  0  0  0
   17.2894   -1.6945    4.3617 C   0  0  0  0  0  0  0  0  0  0  0  0
   16.3332   -1.9132    3.3763 C   0  0  0  0  0  0  0  0  0  0  0  0
   15.2948   -0.5437    3.2188 S   0  0  0  0  0  0  0  0  0  0  0  0
   17.6856   -0.7371    7.4005 C   0  0  0  0  0  0  0  0  0  0  0  0
   19.5008   -0.1084    5.7694 C   0  0  0  0  0  0  0  0  0  0  0  0
   19.9420    0.4778    4.6523 O   0  0  0  0  0  0  0  0  0  0  0  0
   21.3366    0.1893    4.6052 N   0  0  0  0  0  0  0  0  0  0  0  0
   21.5306   -0.5212    5.6843 C   0  0  0  0  0  0  0  0  0  0  0  0
   20.3929   -0.7319    6.4483 N   0  0  0  0  0  0  0  0  0  0  0  0
   16.1651   -3.0052    2.6033 N   0  0  0  0  0  0  0  0  0  0  0  0
   22.8349   -1.0932    6.0768 C   0  0  0  0  0  0  0  0  0  0  0  0
   23.9207   -0.6312    5.4365 N   0  0  0  0  0  0  0  0  0  0  0  0
   25.1129   -1.1528    5.7755 C   0  0  0  0  0  0  0  0  0  0  0  0
   25.2639   -2.1387    6.7500 C   0  0  0  0  0  0  0  0  0  0  0  0
   24.1280   -2.5941    7.3940 C   0  0  0  0  0  0  0  0  0  0  0  0
   22.8945   -2.0709    7.0591 C   0  0  0  0  0  0  0  0  0  0  0  0
   18.2816   -2.6789    4.6625 C   0  0  0  0  0  0  0  0  0  0  0  0
   19.0589   -3.4973    4.8688 N   0  0  0  0  0  0  0  0  0  0  0  0
   26.1982   -0.6750    5.0820 N   0  0  0  0  0  0  0  0  0  0  0  0
   26.0358    0.4071    4.0954 C   0  0  0  0  0  0  0  0  0  0  0  0
   26.8978    0.1468    2.8491 C   0  0  0  0  0  0  0  0  0  0  0  0
   28.2989   -0.1678    3.2648 N   0  0  0  0  0  0  0  0  0  0  0  0
   28.3171   -1.4142    4.0851 C   0  0  0  0  0  0  0  0  0  0  0  0
   27.5312   -1.2091    5.3777 C   0  0  0  0  0  0  0  0  0  0  0  0
   29.1988   -0.2741    2.0804 C   0  0  0  0  0  0  0  0  0  0  0  0
   26.3415    1.7618    4.7132 C   0  0  0  0  0  0  0  0  0  0  0  0
  1  2  1  0  0  0  0
  2  3  1  0  0  0  0
  3  4  1  0  0  0  0
  4  6  1  0  0  0  0
  4 10  1  0  0  0  0
  4 11  1  0  0  0  0
  1  5  1  0  0  0  0
  5  6  4  0  0  0  0
  5  9  4  0  0  0  0
  6  7  4  0  0  0  0
  7  8  4  0  0  0  0
  7 23  1  0  0  0  0
  8  9  4  0  0  0  0
  8 16  1  0  0  0  0
 11 12  4  0  0  0  0
 11 15  4  0  0  0  0
 12 13  4  0  0  0  0
 13 14  4  0  0  0  0
 14 15  4  0  0  0  0
 14 17  1  0  0  0  0
 17 18  4  0  0  0  0
 17 22  4  0  0  0  0
 18 19  4  0  0  0  0
 19 25  1  0  0  0  0
 19 20  4  0  0  0  0
 20 21  4  0  0  0  0
 21 22  4  0  0  0  0
 23 24  3  0  0  0  0
 25 26  1  0  0  0  0
 26 27  1  0  0  0  0
 26 32  1  0  0  0  0
 27 28  1  0  0  0  0
 28 29  1  0  0  0  0
 29 30  1  0  0  0  0
 25 30  1  0  0  0  0
 28 31  1  0  0  0  0
M  END
$$$$
