
     RDKit          3D

 48 55  0  0  0  0  0  0  0  0999 V2000
   17.9420   -1.6550    4.8140 C   0  0  1  0  0  0  0  0  0  0  0  0
   19.3100    0.4170    7.8010 C   0  0  0  0  0  0  0  0  0  0  0  0
   21.6940   -2.5910    6.4770 C   0  0  0  0  0  0  0  0  0  0  0  0
   24.9390   -1.9100    9.6690 C   0  0  0  0  0  0  0  0  0  0  0  0
   24.8130   -4.1500    8.5740 C   0  0  0  0  0  0  0  0  0  0  0  0
   25.1140   -3.4610    9.8760 C   0  0  2  0  0  0  0  0  0  0  0  0
   25.7350   -5.3370   11.9860 C   0  0  0  0  0  0  0  0  0  0  0  0
   18.4510    0.4480    6.9760 C   0  0  0  0  0  0  0  0  0  0  0  0
   17.3380    0.4960    5.9300 C   0  0  0  0  0  0  0  0  0  0  0  0
   16.4670    1.5730    5.9410 C   0  0  0  0  0  0  0  0  0  0  0  0
   15.4270    1.7060    5.0460 C   0  0  0  0  0  0  0  0  0  0  0  0
   15.2170    0.7470    4.0910 C   0  0  0  0  0  0  0  0  0  0  0  0
   16.0860   -0.3330    4.0550 C   0  0  0  0  0  0  0  0  0  0  0  0
   15.8030   -1.2430    3.0630 C   0  0  0  0  0  0  0  0  0  0  0  0
   16.5830   -2.3540    2.9350 C   0  0  0  0  0  0  0  0  0  0  0  0
   17.6360   -2.5330    3.7850 C   0  0  0  0  0  0  0  0  0  0  0  0
   19.2140   -2.0480    5.5480 C   0  0  2  0  0  0  0  0  0  0  0  0
   20.3320   -1.3760    5.0940 C   0  0  2  0  0  0  0  0  0  0  0  0
   21.5620   -1.6230    5.5500 C   0  0  0  0  0  0  0  0  0  0  0  0
   20.5690   -3.3210    6.9100 C   0  0  0  0  0  0  0  0  0  0  0  0
   22.9610   -2.8900    7.0030 C   0  0  1  0  0  0  0  0  0  0  0  0
   27.0090   -7.0190   13.2290 C   0  0  0  0  0  0  0  0  0  0  0  0
   24.3870   -4.6390   11.8630 C   0  0  0  0  0  0  0  0  0  0  0  0
   25.6090   -6.4650   13.0070 C   0  0  0  0  0  0  0  0  0  0  0  0
   23.1060   -3.0550   10.6140 C   0  0  1  0  0  0  0  0  0  0  0  0
   23.6450   -1.6340   10.2020 C   0  0  0  0  0  0  0  0  0  0  0  0
   22.2400   -3.6400    9.5340 C   0  0  0  0  0  0  0  0  0  0  0  0
   23.8250   -1.3060    5.6360 C   0  0  0  0  0  0  0  0  0  0  0  0
   26.1920   -1.1580    5.4020 C   0  0  0  0  0  0  0  0  0  0  0  0
   27.1740   -0.6300    4.3420 C   0  0  1  0  0  0  0  0  0  0  0  0
   26.5140    0.0490    2.1830 C   0  0  0  0  0  0  0  0  0  0  0  0
   27.2730    1.2320    2.8390 C   0  0  0  0  0  0  0  0  0  0  0  0
   27.1410    0.9020    4.3290 C   0  0  0  0  0  0  0  0  0  0  0  0
   27.9050   -1.8460    2.4460 C   0  0  0  0  0  0  0  0  0  0  0  0
   28.8280   -2.2400    3.6550 C   0  0  0  0  0  0  0  0  0  0  0  0
   28.5890   -1.0950    4.6460 C   0  0  0  0  0  0  0  0  0  0  0  0
   17.1760   -0.4870    4.9490 C   0  0  2  0  0  0  0  0  0  0  0  0
   20.1690   -0.3630    4.1820 F   0  0  0  0  0  0  0  0  0  0  0  0
   19.3130   -3.0590    6.4110 N   0  0  0  0  0  0  0  0  0  0  0  0
   23.1330   -3.9460    7.9970 N   0  0  0  0  0  0  0  0  0  0  0  0
   24.1980   -3.7220   10.7730 N   0  0  0  0  0  0  0  0  0  0  0  0
   24.0510   -2.2470    6.5450 N   0  0  0  0  0  0  0  0  0  0  0  0
   26.7770   -1.1130    3.0510 N   0  0  0  0  0  0  0  0  0  0  0  0
   22.6490   -0.9690    5.1320 N   0  0  0  0  0  0  0  0  0  0  0  0
   27.4620   -7.8740   12.4270 O   0  0  0  0  0  0  0  0  0  0  0  0
   27.7020   -6.6070   14.2010 O   0  0  0  0  0  0  0  0  0  0  0  0
   23.5170   -4.8260   12.6580 O   0  0  0  0  0  0  0  0  0  0  0  0
   24.9420   -0.6000    5.1370 O   0  0  0  0  0  0  0  0  0  0  0  0
  6  5  1  6
  6  4  1  0
  8  2  1  0
  9  8  1  0
 10  9  1  0
 11 10  1  0
 12 11  1  0
 13 12  1  0
 14 13  1  0
 15 14  1  0
 16 15  1  0
  1 16  1  6
 17  1  1  0
 18 17  1  0
 19 18  1  0
 19  3  1  0
 20  3  1  0
 21  3  1  0
 23  7  1  0
 24 22  1  0
 24  7  1  0
 25 26  1  6
 26  4  1  0
 27 25  1  0
 30 29  1  1
 32 31  1  0
 33 30  1  0
 33 32  1  0
 35 34  1  0
 36 30  1  0
 36 35  1  0
 37 13  1  0
 37  1  1  0
 37  9  1  1
 18 38  1  1
 39 20  1  0
 17 39  1  6
 40 27  1  0
 21 40  1  6
 40  5  1  0
 41 25  1  0
 41  6  1  0
 41 23  1  0
 42 28  1  0
 42 21  1  0
 43 31  1  0
 43 30  1  0
 43 34  1  0
 44 19  1  0
 44 28  1  0
 45 22  1  0
 46 22  1  0
 47 23  1  0
 48 29  1  0
 48 28  1  0
M  END
$$$$

     RDKit          3D

 28 31  0  0  0  0  0  0  0  0999 V2000
   19.2660   -0.4800    5.9580 C   0  0  1  0  0  0  0  0  0  0  0  0
   17.4440   -0.5980    4.2260 C   0  0  0  0  0  0  0  0  0  0  0  0
   15.7560    1.1070    4.0100 C   0  0  0  0  0  0  0  0  0  0  0  0
   19.3240   -0.9310    7.2520 C   0  0  2  0  0  0  0  0  0  0  0  0
   20.4480   -1.5090    7.7760 C   0  0  0  0  0  0  0  0  0  0  0  0
   22.6020   -1.9530   11.3950 C   0  0  0  0  0  0  0  0  0  0  0  0
   25.9550   -4.0980   13.9960 C   0  0  0  0  0  0  0  0  0  0  0  0
   23.6020   -2.2480   13.7570 O   0  0  0  0  0  0  0  0  0  0  0  0
   23.8890   -3.1850   12.9660 C   0  0  2  0  0  0  0  0  0  0  0  0
   23.5210   -3.0670   11.7020 N   0  0  0  0  0  0  0  0  0  0  0  0
   23.8920   -4.0750   10.6600 C   0  0  0  0  0  0  0  0  0  0  0  0
   24.0550   -3.4650    9.3110 C   0  0  0  0  0  0  0  0  0  0  0  0
   23.0550   -2.4970    8.9370 N   0  0  0  0  0  0  0  0  0  0  0  0
   22.8230   -2.1290    7.5930 C   0  0  2  0  0  0  0  0  0  0  0  0
   23.9230   -2.2230    6.7800 N   0  0  0  0  0  0  0  0  0  0  0  0
   23.8230   -1.7730    5.5380 C   0  0  0  0  0  0  0  0  0  0  0  0
   22.7010   -1.2540    4.9940 N   0  0  0  0  0  0  0  0  0  0  0  0
   21.6110   -1.1120    5.7670 C   0  0  1  0  0  0  0  0  0  0  0  0
   20.4370   -0.6270    5.2160 C   0  0  0  0  0  0  0  0  0  0  0  0
   18.0720    0.0780    5.2570 C   0  0  1  0  0  0  0  0  0  0  0  0
   16.3080   -0.0890    3.5940 C   0  0  0  0  0  0  0  0  0  0  0  0
   16.3000    1.7540    5.0970 C   0  0  0  0  0  0  0  0  0  0  0  0
   17.4370    1.2320    5.6840 C   0  0  0  0  0  0  0  0  0  0  0  0
   17.9800    1.9160    6.7010 F   0  0  0  0  0  0  0  0  0  0  0  0
   21.6220   -1.6060    7.0440 C   0  0  2  0  0  0  0  0  0  0  0  0
   17.8610   -0.8450    8.1950 Cl  0  0  0  0  0  0  0  0  0  0  0  0
   22.7380   -1.5170    9.9790 C   0  0  0  0  0  0  0  0  0  0  0  0
   24.5740   -4.4400   13.4900 C   0  0  0  0  0  0  0  0  0  0  0  0
  4  1  1  0
  5  4  1  0
  9  8  1  1
 10  9  1  0
 10  6  1  0
 11 10  1  0
 12 11  1  0
 13 12  1  0
 14 13  1  1
 15 14  1  0
 16 15  1  0
 17 16  1  0
 18 17  1  0
 18 19  1  6
  1 19  1  6
 20  2  1  1
 20  1  1  0
 21  3  1  0
 21  2  1  0
 22  3  1  0
 23 22  1  0
 23 20  1  0
 24 23  1  0
 25 18  1  0
 25  5  1  1
 25 14  1  0
  4 26  1  6
 27 13  1  0
 27  6  1  0
 28  9  1  0
 28  7  1  0
M  END
$$$$

     RDKit          3D

 23 24  0  0  0  0  0  0  0  0999 V2000
   18.4030   -1.8980    5.0230 C   0  0  0  0  0  0  0  0  0  0  0  0
   18.3900   -1.3050    6.2910 C   0  0  0  0  0  0  0  0  0  0  0  0
   19.4550   -1.5490    7.1790 C   0  0  1  0  0  0  0  0  0  0  0  0
   21.4030   -3.7270   10.6210 C   0  0  0  0  0  0  0  0  0  0  0  0
   20.4680   -3.0180    9.8820 C   0  0  0  0  0  0  0  0  0  0  0  0
   22.4360   -3.0670   11.2920 C   0  0  2  0  0  0  0  0  0  0  0  0
   16.1590   -1.1580    4.2640 C   0  0  0  0  0  0  0  0  0  0  0  0
   15.1870   -2.2300    4.8130 C   0  0  0  0  0  0  0  0  0  0  0  0
   23.9730   -3.5080   13.2030 C   0  0  0  0  0  0  0  0  0  0  0  0
   24.8370   -4.5540   13.8290 C   0  0  0  0  0  0  0  0  0  0  0  0
   26.2820   -4.1090   14.0490 C   0  0  0  0  0  0  0  0  0  0  0  0
   20.5170   -2.3730    6.7660 C   0  0  0  0  0  0  0  0  0  0  0  0
   20.4280   -2.9720    5.4990 C   0  0  1  0  0  0  0  0  0  0  0  0
   19.4170   -2.6910    4.6860 N   0  0  0  0  0  0  0  0  0  0  0  0
   19.4160   -0.7340    8.7690 S   0  0  0  0  0  0  0  0  0  0  0  0
   20.6040   -1.6440    9.7180 C   0  0  1  0  0  0  0  0  0  0  0  0
   21.6560   -0.9800   10.3650 C   0  0  0  0  0  0  0  0  0  0  0  0
   22.5930   -1.6860   11.1310 C   0  0  0  0  0  0  0  0  0  0  0  0
   17.4800   -1.7270    4.0500 N   0  0  0  0  0  0  0  0  0  0  0  0
   21.6670   -4.1170    4.7550 Br  0  0  0  0  0  0  0  0  0  0  0  0
   15.1820   -3.3790    3.9380 O   0  0  0  0  0  0  0  0  0  0  0  0
   23.3340   -3.8520   12.0560 N   0  0  0  0  0  0  0  0  0  0  0  0
   23.8250   -2.3940   13.7380 O   0  0  0  0  0  0  0  0  0  0  0  0
  2  1  1  0
  3  2  1  0
  5  4  1  0
  6  4  1  0
  8  7  1  0
 10  9  1  0
 11 10  1  0
 12  3  1  0
 13 12  1  0
 14  1  1  0
 14 13  1  0
  3 15  1  6
 16 15  1  1
 16  5  1  0
 17 16  1  0
 18 17  1  0
 18  6  1  0
 19  7  1  0
 19  1  1  0
 13 20  1  6
 21  8  1  0
 22  9  1  0
  6 22  1  6
 23  9  1  0
M  END
$$$$

     RDKit          3D

 26 27  0  0  0  0  0  0  0  0999 V2000
   24.4470   -4.1090   10.9050 C   0  0  2  0  0  0  0  0  0  0  0  0
   26.4120   -4.6460   14.4540 C   0  0  0  0  0  0  0  0  0  0  0  0
   24.4080   -2.7090   11.4050 C   0  0  0  0  0  0  0  0  0  0  0  0
   24.4570   -1.6430   10.3490 C   0  0  0  0  0  0  0  0  0  0  0  0
   18.1950    0.5280    7.5960 C   0  0  0  0  0  0  0  0  0  0  0  0
   16.1850   -0.6900    8.9720 Cl  0  0  0  0  0  0  0  0  0  0  0  0
   17.8170   -0.1620    8.7740 C   0  0  0  0  0  0  0  0  0  0  0  0
   18.7820   -0.4070    9.7840 C   0  0  0  0  0  0  0  0  0  0  0  0
   18.2410   -1.4320   11.5520 I   0  0  0  0  0  0  0  0  0  0  0  0
   20.1130    0.0190    9.6340 C   0  0  0  0  0  0  0  0  0  0  0  0
   20.4800    0.7130    8.4480 C   0  0  0  0  0  0  0  0  0  0  0  0
   21.8380    1.1710    8.2530 N   0  0  0  0  0  0  0  0  0  0  0  0
   22.8970    0.4070    8.8290 C   0  0  0  0  0  0  0  0  0  0  0  0
   23.0820   -0.9940    8.2960 C   0  0  0  0  0  0  0  0  0  0  0  0
   23.8470   -1.9760    9.0680 N   0  0  0  0  0  0  0  0  0  0  0  0
   24.0370   -3.3280    8.5730 C   0  0  0  0  0  0  0  0  0  0  0  0
   23.7230   -4.3470    9.6220 C   0  0  0  0  0  0  0  0  0  0  0  0
   23.8700   -4.9870   11.9270 N   0  0  0  0  0  0  0  0  0  0  0  0
   25.0210   -6.0640   12.4510 S   0  0  2  0  0  0  0  0  0  0  0  0
   26.4490   -5.1940   13.0480 C   0  0  0  0  0  0  0  0  0  0  0  0
   25.3750   -7.0110   11.3920 O   0  0  0  0  0  0  0  0  0  0  0  0
   24.4350   -6.9150   13.4460 O   0  0  0  0  0  0  0  0  0  0  0  0
   22.5820   -1.3250    7.2060 O   0  0  0  0  0  0  0  0  0  0  0  0
   19.5270    0.9610    7.4370 C   0  0  0  0  0  0  0  0  0  0  0  0
   19.9310    1.6540    6.2540 O   0  0  0  0  0  0  0  0  0  0  0  0
   18.9420    2.0870    5.3620 C   0  0  0  0  0  0  0  0  0  0  0  0
  3  1  1  0
  4  3  1  0
  7  6  1  0
  7  5  1  0
  8  7  1  0
  9  8  1  0
 10  8  1  0
 11 10  1  0
 12 11  1  0
 13 12  1  0
 14 13  1  0
 15 14  1  0
 15  4  1  0
 16 15  1  0
 17 16  1  0
 17  1  1  0
  1 18  1  1
 19 18  1  0
 20 19  1  0
 20  2  1  0
 19 21  1  6
 22 19  1  0
 23 14  1  0
 24 11  1  0
 24  5  1  0
 25 24  1  0
 26 25  1  0
M  END
$$$$

     RDKit          3D

 37 43  0  0  0  0  0  0  0  0999 V2000
   21.2110   -1.7360    5.9690 C   0  0  0  0  0  0  0  0  0  0  0  0
   21.3100   -2.4210    7.1940 C   0  0  0  0  0  0  0  0  0  0  0  0
   22.5980   -2.5270    7.7730 C   0  0  0  0  0  0  0  0  0  0  0  0
   23.6450   -1.9930    7.1270 N   0  0  0  0  0  0  0  0  0  0  0  0
   22.3040   -1.2300    5.3930 N   0  0  0  0  0  0  0  0  0  0  0  0
   23.5070   -1.3520    5.9610 C   0  0  0  0  0  0  0  0  0  0  0  0
   20.1560   -2.9490    7.8100 C   0  0  0  0  0  0  0  0  0  0  0  0
   19.0130   -3.2640    6.8430 C   0  0  0  0  0  0  0  0  0  0  0  0
   20.0300   -1.5480    5.2620 C   0  0  0  0  0  0  0  0  0  0  0  0
   25.8500   -1.0620    5.9380 C   0  0  0  0  0  0  0  0  0  0  0  0
   24.1870   -3.9360    8.9030 C   0  0  0  0  0  0  0  0  0  0  0  0
   25.0700   -3.5530   10.0720 C   0  0  1  0  0  0  0  0  0  0  0  0
   23.3640   -2.7260   11.3710 C   0  0  2  0  0  0  0  0  0  0  0  0
   22.3060   -2.9000   10.2670 C   0  0  0  0  0  0  0  0  0  0  0  0
   17.6510   -1.8510    5.3080 C   0  0  2  0  0  0  0  0  0  0  0  0
   17.1780   -2.8160    4.4230 C   0  0  0  0  0  0  0  0  0  0  0  0
   16.0070   -2.6600    3.7030 C   0  0  0  0  0  0  0  0  0  0  0  0
   15.2800   -1.4980    3.8640 C   0  0  0  0  0  0  0  0  0  0  0  0
   15.7350   -0.5080    4.7300 C   0  0  0  0  0  0  0  0  0  0  0  0
   16.9290   -0.6400    5.4730 C   0  0  0  0  0  0  0  0  0  0  0  0
   14.9450    0.6300    4.8240 C   0  0  0  0  0  0  0  0  0  0  0  0
   15.2820    1.6780    5.6550 C   0  0  0  0  0  0  0  0  0  0  0  0
   16.4480    1.5690    6.3940 C   0  0  0  0  0  0  0  0  0  0  0  0
   17.2750    0.4470    6.3290 C   0  0  0  0  0  0  0  0  0  0  0  0
   18.4040    0.5310    7.1640 C   0  0  0  0  0  0  0  0  0  0  0  0
   26.9720   -0.5310    5.0300 C   0  0  2  0  0  0  0  0  0  0  0  0
   26.1770   -0.1550    2.8700 C   0  0  0  0  0  0  0  0  0  0  0  0
   26.8460    1.1390    3.2910 C   0  0  0  0  0  0  0  0  0  0  0  0
   26.7720    0.9890    4.8080 C   0  0  0  0  0  0  0  0  0  0  0  0
   28.3320   -1.1740    3.1180 C   0  0  0  0  0  0  0  0  0  0  0  0
   24.2180   -1.5220   11.0600 C   0  0  0  0  0  0  0  0  0  0  0  0
   25.2560   -2.0350   10.0550 C   0  0  0  0  0  0  0  0  0  0  0  0
   22.9490   -3.1250    8.9340 N   0  0  0  0  0  0  0  0  0  0  0  0
   18.8330   -2.1750    5.8680 N   0  0  0  0  0  0  0  0  0  0  0  0
   24.4010   -3.7780   11.3670 N   0  0  0  0  0  0  0  0  0  0  0  0
   26.9620   -1.1240    3.6630 N   0  0  0  0  0  0  0  0  0  0  0  0
   24.5780   -0.8080    5.3280 O   0  0  0  0  0  0  0  0  0  0  0  0
  2  1  1  0
  3  2  1  0
  4  3  1  0
  5  1  1  0
  6  5  1  0
  6  4  1  0
  7  2  1  0
  8  7  1  0
  9  1  1  0
 12 11  1  6
 13 14  1  6
 16 15  1  0
 17 16  1  0
 18 17  1  0
 19 18  1  0
 20 19  1  0
 20 15  1  0
 21 19  1  0
 22 21  1  0
 23 22  1  0
 24 23  1  0
 24 20  1  0
 25 24  1  0
 26 10  1  1
 28 27  1  0
 29 28  1  0
 29 26  1  0
 31 13  1  0
 32 12  1  0
 32 31  1  0
 33 14  1  0
 33 11  1  0
 33  3  1  0
 15 34  1  6
 34  9  1  0
 34  8  1  0
 35 12  1  0
 35 13  1  0
 36 27  1  0
 36 26  1  0
 36 30  1  0
 37 10  1  0
 37  6  1  0
M  END
$$$$

     RDKit          3D

 40 45  0  0  0  0  0  0  0  0999 V2000
   26.0030   -3.9650   15.2680 C   0  0  0  0  0  0  0  0  0  0  0  0
   25.0850   -4.4480   14.1290 C   0  0  0  0  0  0  0  0  0  0  0  0
   24.3500   -3.2780   13.4340 C   0  0  0  0  0  0  0  0  0  0  0  0
   23.6410   -2.5540   14.0510 O   0  0  0  0  0  0  0  0  0  0  0  0
   24.5180   -3.0520   11.9980 N   0  0  0  0  0  0  0  0  0  0  0  0
   25.2940   -3.7070   10.8930 C   0  0  0  0  0  0  0  0  0  0  0  0
   24.6750   -2.7610    9.9170 C   0  0  2  0  0  0  0  0  0  0  0  0
   23.9840   -2.0430   11.0270 C   0  0  0  0  0  0  0  0  0  0  0  0
   23.7010   -3.4380    9.0390 N   0  0  0  0  0  0  0  0  0  0  0  0
   22.9480   -2.6450    8.0580 C   0  0  0  0  0  0  0  0  0  0  0  0
   23.1370   -1.4680    7.9930 O   0  0  0  0  0  0  0  0  0  0  0  0
   21.9190   -3.3410    7.1200 C   0  0  0  0  0  0  0  0  0  0  0  0
   21.5640   -2.3650    6.0680 N   0  0  0  0  0  0  0  0  0  0  0  0
   22.1550   -2.2790    4.8570 C   0  0  0  0  0  0  0  0  0  0  0  0
   23.3030   -3.1400    4.2740 C   0  0  2  0  0  0  0  0  0  0  0  0
   24.6370   -3.1150    5.0350 C   0  0  0  0  0  0  0  0  0  0  0  0
   24.6160   -2.8900    3.5250 C   0  0  0  0  0  0  0  0  0  0  0  0
   21.5650   -1.2220    4.1480 C   0  0  0  0  0  0  0  0  0  0  0  0
   21.9470   -0.7620    2.6940 C   0  0  0  0  0  0  0  0  0  0  0  0
   21.7630   -1.4710    1.7560 O   0  0  0  0  0  0  0  0  0  0  0  0
   22.5410    0.5790    2.4790 N   0  0  0  0  0  0  0  0  0  0  0  0
   22.9560    1.0200    1.1500 C   0  0  0  0  0  0  0  0  0  0  0  0
   24.4950    0.8100    1.1350 C   0  0  0  0  0  0  0  0  0  0  0  0
   25.1350    1.2840    2.4850 C   0  0  0  0  0  0  0  0  0  0  0  0
   26.5690    1.3760    2.5280 C   0  0  0  0  0  0  0  0  0  0  0  0
   27.3190    1.0260    1.3700 O   0  0  0  0  0  0  0  0  0  0  0  0
   28.7350    1.1120    1.4480 C   0  0  0  0  0  0  0  0  0  0  0  0
   27.1830    1.8040    3.7150 C   0  0  0  0  0  0  0  0  0  0  0  0
   26.4050    2.1370    4.8380 C   0  0  0  0  0  0  0  0  0  0  0  0
   25.0130    2.0520    4.7970 C   0  0  0  0  0  0  0  0  0  0  0  0
   24.3750    1.6170    3.5900 C   0  0  0  0  0  0  0  0  0  0  0  0
   22.8530    1.5080    3.5360 C   0  0  0  0  0  0  0  0  0  0  0  0
   20.5630   -0.6510    5.0150 C   0  0  0  0  0  0  0  0  0  0  0  0
   19.6580    0.4370    4.8280 C   0  0  0  0  0  0  0  0  0  0  0  0
   18.7760    0.7530    5.8750 C   0  0  0  0  0  0  0  0  0  0  0  0
   17.6590    2.1120    5.6510 Cl  0  0  0  0  0  0  0  0  0  0  0  0
   18.7830    0.0300    7.0860 C   0  0  0  0  0  0  0  0  0  0  0  0
   19.6760   -1.0360    7.2670 C   0  0  0  0  0  0  0  0  0  0  0  0
   19.6500   -1.8060    8.6050 C   0  0  0  0  0  0  0  0  0  0  0  0
   20.5870   -1.3760    6.1890 C   0  0  0  0  0  0  0  0  0  0  0  0
  2  1  1  0
  3  2  1  0
  4  3  1  0
  5  3  1  0
  6  5  1  0
  7  6  1  0
  8  7  1  0
  8  5  1  0
  7  9  1  6
 10  9  1  0
 11 10  1  0
 12 10  1  0
 13 12  1  0
 14 13  1  0
 15 14  1  1
 16 15  1  0
 17 16  1  0
 17 15  1  0
 18 14  1  0
 19 18  1  0
 20 19  1  0
 21 19  1  0
 22 21  1  0
 23 22  1  0
 24 23  1  0
 25 24  1  0
 26 25  1  0
 27 26  1  0
 28 25  1  0
 29 28  1  0
 30 29  1  0
 31 30  1  0
 31 24  1  0
 32 31  1  0
 32 21  1  0
 33 18  1  0
 34 33  1  0
 35 34  1  0
 36 35  1  0
 37 35  1  0
 38 37  1  0
 39 38  1  0
 40 33  1  0
 40 38  1  0
 40 13  1  0
M  END
$$$$

     RDKit          3D

 25 26  0  0  0  0  0  0  0  0999 V2000
   14.6920   -0.2100    8.0930 Cl  0  0  0  0  0  0  0  0  0  0  0  0
   18.0950    3.2720    6.0850 Cl  0  0  0  0  0  0  0  0  0  0  0  0
   16.2730    0.2980    7.9020 C   0  0  0  0  0  0  0  0  0  0  0  0
   16.5380    1.4810    7.1170 C   0  0  0  0  0  0  0  0  0  0  0  0
   17.8240    1.9050    6.9860 C   0  0  0  0  0  0  0  0  0  0  0  0
   18.8980    1.2610    7.6120 C   0  0  0  0  0  0  0  0  0  0  0  0
   20.1580    1.8200    7.4160 O   0  0  0  0  0  0  0  0  0  0  0  0
   21.2320    1.2900    8.0980 C   0  0  0  0  0  0  0  0  0  0  0  0
   21.7170    0.0540    7.3820 C   0  0  0  0  0  0  0  0  0  0  0  0
   22.8520   -0.6380    7.9390 N   0  0  0  0  0  0  0  0  0  0  0  0
   23.3410   -1.8100    7.2090 C   0  0  0  0  0  0  0  0  0  0  0  0
   23.7760   -2.9100    8.1050 C   0  0  0  0  0  0  0  0  0  0  0  0
   24.6030   -2.4510    9.2340 C   0  0  2  0  0  0  0  0  0  0  0  0
   24.8560   -3.6130    9.9970 N   0  0  0  0  0  0  0  0  0  0  0  0
   26.1740   -3.9700   10.3700 C   0  0  1  0  0  0  0  0  0  0  0  0
   26.3290   -5.2660   11.1380 C   0  0  0  0  0  0  0  0  0  0  0  0
   27.5850   -5.4260   11.8870 C   0  0  0  0  0  0  0  0  0  0  0  0
   27.4180   -5.7440   13.3550 C   0  0  0  0  0  0  0  0  0  0  0  0
   26.8400   -4.5370   14.4920 S   0  0  0  0  0  0  0  0  0  0  0  0
   27.1660   -3.3210   10.0480 O   0  0  0  0  0  0  0  0  0  0  0  0
   23.9530   -1.3280    9.9980 C   0  0  0  0  0  0  0  0  0  0  0  0
   23.5640   -0.2100    9.0950 C   0  0  0  0  0  0  0  0  0  0  0  0
   21.2210   -0.3840    6.3570 O   0  0  0  0  0  0  0  0  0  0  0  0
   18.6490    0.1110    8.3740 C   0  0  0  0  0  0  0  0  0  0  0  0
   17.3270   -0.3440    8.5040 C   0  0  0  0  0  0  0  0  0  0  0  0
  3  1  1  0
  4  3  1  0
  5  4  1  0
  5  2  1  0
  6  5  1  0
  7  6  1  0
  8  7  1  0
  9  8  1  0
 10  9  1  0
 11 10  1  0
 12 11  1  0
 13 12  1  0
 13 14  1  1
 15 14  1  0
 16 15  1  0
 17 16  1  0
 18 17  1  0
 19 18  1  0
 15 20  1  6
 21 13  1  0
 22 21  1  0
 22 10  1  0
 23  9  1  0
 24  6  1  0
 25  3  1  0
 25 24  1  0
M  END
$$$$

     RDKit          3D

 39 43  0  0  0  0  0  0  0  0999 V2000
   22.8630    2.3080    4.1650 C   0  0  0  0  0  0  0  0  0  0  0  0
   23.7740    1.0930    4.2860 C   0  0  2  0  0  0  0  0  0  0  0  0
   25.2450    1.4820    4.0390 C   0  0  0  0  0  0  0  0  0  0  0  0
   23.3010    0.0380    3.2660 C   0  0  0  0  0  0  0  0  0  0  0  0
   23.2900    0.3040    1.8900 C   0  0  0  0  0  0  0  0  0  0  0  0
   22.8470   -0.6680    1.0000 C   0  0  0  0  0  0  0  0  0  0  0  0
   22.3990   -1.9020    1.4550 C   0  0  0  0  0  0  0  0  0  0  0  0
   22.4030   -2.1630    2.8230 C   0  0  0  0  0  0  0  0  0  0  0  0
   22.8530   -1.1960    3.7190 C   0  0  0  0  0  0  0  0  0  0  0  0
   22.8220   -1.5210    5.0920 N   0  0  0  0  0  0  0  0  0  0  0  0
   21.6410   -1.4020    5.8480 C   0  0  0  0  0  0  0  0  0  0  0  0
   20.4690   -0.9220    5.2580 C   0  0  0  0  0  0  0  0  0  0  0  0
   23.9750   -2.0140    5.6930 C   0  0  0  0  0  0  0  0  0  0  0  0
   25.0040   -2.1210    5.0210 O   0  0  0  0  0  0  0  0  0  0  0  0
   23.9700   -2.3550    6.9900 N   0  0  0  0  0  0  0  0  0  0  0  0
   22.8650   -2.2560    7.7550 C   0  0  0  0  0  0  0  0  0  0  0  0
   23.0060   -2.6260    9.0980 N   0  0  0  0  0  0  0  0  0  0  0  0
   22.2510   -1.9080   10.1350 C   0  0  0  0  0  0  0  0  0  0  0  0
   23.0630   -1.7130   11.4030 C   0  0  0  0  0  0  0  0  0  0  0  0
   24.0750   -3.5830    9.4770 C   0  0  0  0  0  0  0  0  0  0  0  0
   23.9290   -4.1010   10.8990 C   0  0  0  0  0  0  0  0  0  0  0  0
   23.6310   -3.0110   11.8650 N   0  0  0  0  0  0  0  0  0  0  0  0
   23.8680   -3.1850   13.1650 C   0  0  0  0  0  0  0  0  0  0  0  0
   23.6250   -2.2810   13.9650 O   0  0  0  0  0  0  0  0  0  0  0  0
   24.4680   -4.4990   13.6650 C   0  0  0  0  0  0  0  0  0  0  0  0
   25.8980   -4.2610   14.1450 C   0  0  0  0  0  0  0  0  0  0  0  0
   21.6640   -1.7730    7.1930 C   0  0  0  0  0  0  0  0  0  0  0  0
   20.4870   -1.6440    7.9220 C   0  0  0  0  0  0  0  0  0  0  0  0
   19.3140   -1.1700    7.3240 C   0  0  0  0  0  0  0  0  0  0  0  0
   17.8960   -1.0530    8.2940 Cl  0  0  0  0  0  0  0  0  0  0  0  0
   19.2880   -0.7950    5.9770 C   0  0  0  0  0  0  0  0  0  0  0  0
   18.1500   -0.2890    5.3170 C   0  0  0  0  0  0  0  0  0  0  0  0
   17.6250    0.9710    5.6560 C   0  0  0  0  0  0  0  0  0  0  0  0
   18.1680    1.7100    6.6410 F   0  0  0  0  0  0  0  0  0  0  0  0
   16.5050    1.4770    4.9920 C   0  0  0  0  0  0  0  0  0  0  0  0
   15.9100    0.7540    3.9690 C   0  0  0  0  0  0  0  0  0  0  0  0
   16.4260   -0.4890    3.6120 C   0  0  0  0  0  0  0  0  0  0  0  0
   17.5440   -0.9980    4.2760 C   0  0  0  0  0  0  0  0  0  0  0  0
   18.0310   -2.2070    3.9050 O   0  0  0  0  0  0  0  0  0  0  0  0
  2  1  1  6
  3  2  1  0
  4  2  1  0
  5  4  1  0
  6  5  1  0
  7  6  1  0
  8  7  1  0
  9  8  1  0
  9  4  1  0
 10  9  1  0
 11 10  1  0
 12 11  1  0
 13 10  1  0
 14 13  1  0
 15 13  1  0
 16 15  1  0
 17 16  1  0
 18 17  1  0
 19 18  1  0
 20 17  1  0
 21 20  1  0
 22 21  1  0
 22 19  1  0
 23 22  1  0
 24 23  1  0
 25 23  1  0
 26 25  1  0
 27 11  1  0
 27 16  1  0
 28 27  1  0
 29 28  1  0
 30 29  1  0
 31 12  1  0
 31 29  1  0
 32 31  1  0
 33 32  1  0
 34 33  1  0
 35 33  1  0
 36 35  1  0
 37 36  1  0
 38 37  1  0
 38 32  1  0
 39 38  1  0
M  END
$$$$

     RDKit          3D

 33 36  0  0  0  0  0  0  0  0999 V2000
   26.2170   -4.6200   14.2700 C   0  0  0  0  0  0  0  0  0  0  0  0
   24.7540   -4.7420   13.6570 C   0  0  0  0  0  0  0  0  0  0  0  0
   24.3400   -3.3310   13.2150 C   0  0  0  0  0  0  0  0  0  0  0  0
   24.0180   -2.5180   13.9790 O   0  0  0  0  0  0  0  0  0  0  0  0
   24.3220   -2.9660   11.8270 N   0  0  0  0  0  0  0  0  0  0  0  0
   23.9610   -1.7630   11.0330 C   0  0  0  0  0  0  0  0  0  0  0  0
   24.2370   -2.5040    9.7740 C   0  0  1  0  0  0  0  0  0  0  0  0
   24.6940   -3.6430   10.5770 C   0  0  0  0  0  0  0  0  0  0  0  0
   23.1400   -3.0570    9.0270 N   0  0  0  0  0  0  0  0  0  0  0  0
   22.4580   -2.3700    7.9840 C   0  0  0  0  0  0  0  0  0  0  0  0
   22.7550   -1.2750    7.7020 O   0  0  0  0  0  0  0  0  0  0  0  0
   21.3340   -3.1410    7.3180 C   0  0  0  0  0  0  0  0  0  0  0  0
   21.0740   -2.6680    6.0370 O   0  0  0  0  0  0  0  0  0  0  0  0
   20.1780   -1.6040    6.0200 C   0  0  0  0  0  0  0  0  0  0  0  0
   19.7450   -1.0290    7.2050 C   0  0  0  0  0  0  0  0  0  0  0  0
   18.8590    0.0300    7.1790 C   0  0  0  0  0  0  0  0  0  0  0  0
   18.4150    0.5150    5.9580 C   0  0  0  0  0  0  0  0  0  0  0  0
   17.1840    2.0070    5.8770 Br  0  0  0  0  0  0  0  0  0  0  0  0
   18.8630   -0.0550    4.7820 C   0  0  0  0  0  0  0  0  0  0  0  0
   19.7260   -1.1200    4.8130 C   0  0  0  0  0  0  0  0  0  0  0  0
   20.2260   -1.7330    3.5150 C   0  0  0  0  0  0  0  0  0  0  0  0
   19.5550   -2.4530    2.8800 O   0  0  0  0  0  0  0  0  0  0  0  0
   21.5610   -1.3880    3.0940 N   0  0  0  0  0  0  0  0  0  0  0  0
   22.2790   -1.8240    1.9120 C   0  0  0  0  0  0  0  0  0  0  0  0
   23.3990   -0.7720    1.7480 C   0  0  0  0  0  0  0  0  0  0  0  0
   23.6360   -0.2600    2.9480 C   0  0  2  0  0  0  0  0  0  0  0  0
   22.4540   -0.5040    3.8270 C   0  0  0  0  0  0  0  0  0  0  0  0
   24.8230    0.6230    3.3230 C   0  0  0  0  0  0  0  0  0  0  0  0
   24.8700    1.2210    4.5640 C   0  0  0  0  0  0  0  0  0  0  0  0
   25.9420    2.0150    4.9050 C   0  0  0  0  0  0  0  0  0  0  0  0
   26.9670    2.2100    4.0140 C   0  0  0  0  0  0  0  0  0  0  0  0
   26.9190    1.6140    2.7750 C   0  0  0  0  0  0  0  0  0  0  0  0
   25.8460    0.8220    2.4320 C   0  0  0  0  0  0  0  0  0  0  0  0
  2  1  1  0
  3  2  1  0
  4  3  1  0
  5  3  1  0
  6  5  1  0
  7  6  1  0
  8  7  1  0
  8  5  1  0
  7  9  1  1
 10  9  1  0
 11 10  1  0
 12 10  1  0
 13 12  1  0
 14 13  1  0
 15 14  1  0
 16 15  1  0
 17 16  1  0
 18 17  1  0
 19 17  1  0
 20 19  1  0
 20 14  1  0
 21 20  1  0
 22 21  1  0
 23 21  1  0
 24 23  1  0
 25 24  1  0
 26 25  1  0
 27 23  1  0
 27 26  1  0
 26 28  1  6
 29 28  1  0
 30 29  1  0
 31 30  1  0
 32 31  1  0
 33 32  1  0
 33 28  1  0
M  END
$$$$

     RDKit          3D

 69 76  0  0  0  0  0  0  0  0999 V2000
   26.9780   -1.4820    2.2200 N   0  0  0  0  0  0  0  0  0  0  0  0
   18.2260    1.6630    6.5390 C   0  0  0  0  0  0  0  0  0  0  0  0
   18.5300    0.2270    6.1260 C   0  0  1  0  0  0  0  0  0  0  0  0
   16.6080    0.6090    4.6910 C   0  0  2  0  0  0  0  0  0  0  0  0
   17.6300   -0.1410    5.1250 C   0  0  2  0  0  0  0  0  0  0  0  0
   17.6260   -1.3840    4.5640 C   0  0  1  0  0  0  0  0  0  0  0  0
   16.3490   -2.6560    3.0420 N   0  0  0  0  0  0  0  0  0  0  0  0
   19.8970    0.0480    5.7930 C   0  0  2  0  0  0  0  0  0  0  0  0
   23.2340   -0.8480    6.0900 C   0  0  2  0  0  0  0  0  0  0  0  0
   25.4320   -0.9210    5.5810 C   0  0  2  0  0  0  0  0  0  0  0  0
   24.7510   -1.9710    7.4440 C   0  0  0  0  0  0  0  0  0  0  0  0
   27.7390   -2.5130    4.3930 C   0  0  0  0  0  0  0  0  0  0  0  0
   18.4510   -2.4350    4.9320 C   0  0  0  0  0  0  0  0  0  0  0  0
   18.1550   -0.7570    7.2110 C   0  0  0  0  0  0  0  0  0  0  0  0
   21.9010   -0.3300    5.7630 C   0  0  0  0  0  0  0  0  0  0  0  0
   16.1930    1.9080    5.2650 C   0  0  0  0  0  0  0  0  0  0  0  0
   23.4640   -1.5780    7.2350 C   0  0  0  0  0  0  0  0  0  0  0  0
   27.7470   -1.1310    4.9870 C   0  0  0  0  0  0  0  0  0  0  0  0
   26.1950    0.1630    3.6550 C   0  0  2  0  0  0  0  0  0  0  0  0
   16.7550    1.9770    6.6010 C   0  0  0  0  0  0  0  0  0  0  0  0
   27.8920   -2.4460    2.9190 C   0  0  0  0  0  0  0  0  0  0  0  0
   27.1650   -0.1610    2.5790 C   0  0  0  0  0  0  0  0  0  0  0  0
   26.4680    1.5720    4.0760 C   0  0  0  0  0  0  0  0  0  0  0  0
   27.1510   -1.7540    0.7460 C   0  0  0  0  0  0  0  0  0  0  0  0
   26.0530   -1.2160   -0.1440 C   0  0  0  0  0  0  0  0  0  0  0  0
   26.0300   -1.8290   -1.4940 C   0  0  0  0  0  0  0  0  0  0  0  0
   24.7910   -1.5930   -2.2210 C   0  0  0  0  0  0  0  0  0  0  0  0
   24.8210   -2.0070   -3.6570 C   0  0  0  0  0  0  0  0  0  0  0  0
   23.5440   -1.8890   -4.4500 C   0  0  0  0  0  0  0  0  0  0  0  0
   21.2690   -1.0750   -4.5500 C   0  0  2  0  0  0  0  0  0  0  0  0
   21.1470    0.4530   -4.5690 C   0  0  2  0  0  0  0  0  0  0  0  0
   20.0360   -1.8710   -4.0320 C   0  0  1  0  0  0  0  0  0  0  0  0
   19.5310   -1.4260   -2.6860 C   0  0  0  0  0  0  0  0  0  0  0  0
   18.8700   -1.8270   -4.9910 C   0  0  0  0  0  0  0  0  0  0  0  0
   20.4530   -3.3180   -3.8800 C   0  0  0  0  0  0  0  0  0  0  0  0
   20.7510    2.5150   -5.7740 C   0  0  1  0  0  0  0  0  0  0  0  0
   20.2080    2.7900   -7.1670 C   0  0  0  0  0  0  0  0  0  0  0  0
   20.4810    1.5370   -7.9660 C   0  0  2  0  0  0  0  0  0  0  0  0
   20.5030    0.4170   -6.9470 C   0  0  0  0  0  0  0  0  0  0  0  0
   19.8170    3.1630   -4.7750 C   0  0  1  0  0  0  0  0  0  0  0  0
   19.1800    5.1850   -3.6490 C   0  0  0  0  0  0  0  0  0  0  0  0
   18.2060    5.9270   -4.5160 C   0  0  2  0  0  0  0  0  0  0  0  0
   18.3010    6.0330   -5.8840 C   0  0  0  0  0  0  0  0  0  0  0  0
   17.4690    6.8700   -6.5880 C   0  0  0  0  0  0  0  0  0  0  0  0
   16.5260    7.6280   -5.9510 C   0  0  0  0  0  0  0  0  0  0  0  0
   16.3870    7.4770   -4.5910 C   0  0  0  0  0  0  0  0  0  0  0  0
   17.2250    6.6430   -3.8890 C   0  0  0  0  0  0  0  0  0  0  0  0
   15.7240    8.5980   -6.6990 C   0  0  0  0  0  0  0  0  0  0  0  0
   14.5020    9.7600   -8.3260 C   0  0  0  0  0  0  0  0  0  0  0  0
   15.2220    9.8070   -6.3190 C   0  0  0  0  0  0  0  0  0  0  0  0
   15.4130   10.4810   -5.0060 C   0  0  0  0  0  0  0  0  0  0  0  0
   16.6170   -1.5810    3.6950 C   0  0  0  0  0  0  0  0  0  0  0  0
   19.1160   -3.2290    5.2930 N   0  0  0  0  0  0  0  0  0  0  0  0
   21.7300    0.4200    4.7160 N   0  0  0  0  0  0  0  0  0  0  0  0
   20.7840   -0.5910    6.4620 N   0  0  0  0  0  0  0  0  0  0  0  0
   24.2130   -0.5190    5.2470 N   0  0  0  0  0  0  0  0  0  0  0  0
   25.7590   -1.6550    6.6360 N   0  0  0  0  0  0  0  0  0  0  0  0
   26.4650   -0.4600    4.8330 N   0  0  0  0  0  0  0  0  0  0  0  0
   22.4820   -1.3810   -3.8320 N   0  0  0  0  0  0  0  0  0  0  0  0
   20.8240    1.0660   -5.7060 N   0  0  0  0  0  0  0  0  0  0  0  0
   20.1410    4.3220   -4.3020 N   0  0  0  0  0  0  0  0  0  0  0  0
   14.5030   10.4640   -7.2750 N   0  0  0  0  0  0  0  0  0  0  0  0
   20.3750    0.6750    4.7240 O   0  0  0  0  0  0  0  0  0  0  0  0
   23.5030   -2.2690   -5.5920 O   0  0  0  0  0  0  0  0  0  0  0  0
   21.4100    1.0710   -3.5880 O   0  0  0  0  0  0  0  0  0  0  0  0
   21.7150    1.6730   -8.6100 O   0  0  0  0  0  0  0  0  0  0  0  0
   18.7770    2.6530   -4.4990 O   0  0  0  0  0  0  0  0  0  0  0  0
   15.6550   -0.1910    3.5700 S   0  0  0  0  0  0  0  0  0  0  0  0
   15.3170    8.2740   -8.2450 S   0  0  0  0  0  0  0  0  0  0  0  0
  3  2  1  0
  5  4  1  0
  5  3  1  0
  5  6  1  1
  8  3  1  0
  6 13  1  1
  3 14  1  1
  9 15  1  1
  4 16  1  1
 17 11  1  0
 17  9  1  0
 18 12  1  0
 20 16  1  0
 20  2  1  0
 21  1  1  0
 21 12  1  0
 22 19  1  0
 22  1  1  0
 19 23  1  1
 24  1  1  0
 25 24  1  0
 26 25  1  0
 27 26  1  0
 28 27  1  0
 29 28  1  0
 31 30  1  0
 32 30  1  0
 32 33  1  1
 34 32  1  0
 35 32  1  0
 36 37  1  6
 38 37  1  0
 39 38  1  0
 40 36  1  0
 42 41  1  1
 43 42  1  0
 44 43  1  0
 45 44  1  0
 46 45  1  0
 47 46  1  0
 47 42  1  0
 48 45  1  0
 50 48  1  0
 51 50  1  0
 52  7  1  0
 52  6  1  0
 53 13  1  0
 54 15  1  0
  8 55  1  1
 55 15  1  0
 56 10  1  0
 56  9  1  0
 57 11  1  0
 57 10  1  0
 58 19  1  0
 10 58  1  1
 58 18  1  0
 30 59  1  1
 59 29  1  0
 60 39  1  0
 60 36  1  0
 60 31  1  0
 61 41  1  0
 61 40  1  0
 62 50  1  0
 62 49  1  0
 63 54  1  0
 63  8  1  0
 64 29  1  0
 31 65  1  6
 38 66  1  1
 40 67  1  6
 68 52  1  0
 68  4  1  0
 69 49  1  0
 69 48  1  0
M  END
$$$$

     RDKit          3D

 24 25  0  0  0  0  0  0  0  0999 V2000
   24.1800   -4.1410    9.6410 C   0  0  0  0  0  0  0  0  0  0  0  0
   25.2590   -5.2350   13.3440 C   0  0  0  0  0  0  0  0  0  0  0  0
   26.0760   -4.1390   13.9100 C   0  0  0  0  0  0  0  0  0  0  0  0
   22.9150   -2.1920   11.2160 C   0  0  0  0  0  0  0  0  0  0  0  0
   21.9130   -1.4590    7.7650 O   0  0  0  0  0  0  0  0  0  0  0  0
   22.1420   -1.2230    8.9540 C   0  0  0  0  0  0  0  0  0  0  0  0
   21.8900    0.2090    9.4530 C   0  0  0  0  0  0  0  0  0  0  0  0
   20.7940    0.9450    8.8340 N   0  0  0  0  0  0  0  0  0  0  0  0
   19.4820    0.3200    8.6770 C   0  0  0  0  0  0  0  0  0  0  0  0
   19.1060   -0.8000    9.4950 C   0  0  0  0  0  0  0  0  0  0  0  0
   17.8520   -1.3920    9.3420 C   0  0  0  0  0  0  0  0  0  0  0  0
   17.4230   -2.7450   10.3310 Cl  0  0  0  0  0  0  0  0  0  0  0  0
   16.9660   -0.9010    8.4120 C   0  0  0  0  0  0  0  0  0  0  0  0
   15.4440   -1.6210    8.2340 Cl  0  0  0  0  0  0  0  0  0  0  0  0
   17.3320    0.2100    7.6020 C   0  0  0  0  0  0  0  0  0  0  0  0
   18.6060    0.8060    7.7470 C   0  0  0  0  0  0  0  0  0  0  0  0
   18.9750    1.8890    6.9760 O   0  0  0  0  0  0  0  0  0  0  0  0
   18.4170    2.1190    5.7430 C   0  0  0  0  0  0  0  0  0  0  0  0
   22.6140   -2.2920    9.8100 N   0  0  0  0  0  0  0  0  0  0  0  0
   22.8280   -3.6260    9.3180 C   0  0  0  0  0  0  0  0  0  0  0  0
   24.4660   -4.0670   11.0520 N   0  0  0  0  0  0  0  0  0  0  0  0
   24.9200   -5.2510   11.8170 C   0  0  0  0  0  0  0  0  0  0  0  0
   25.0520   -6.3240   11.2360 O   0  0  0  0  0  0  0  0  0  0  0  0
   24.2580   -2.7420   11.5670 C   0  0  0  0  0  0  0  0  0  0  0  0
  3  2  1  0
  6  5  1  0
  7  6  1  0
  8  7  1  0
  9  8  1  0
 10  9  1  0
 11 10  1  0
 12 11  1  0
 13 11  1  0
 14 13  1  0
 15 13  1  0
 16 15  1  0
 16  9  1  0
 17 16  1  0
 18 17  1  0
 19  6  1  0
 19  4  1  0
 20 19  1  0
 20  1  1  0
 21  1  1  0
 22 21  1  0
 22  2  1  0
 23 22  1  0
 24 21  1  0
 24  4  1  0
M  END
$$$$

     RDKit          3D

 12 13  0  0  0  0  0  0  0  0999 V2000
   17.1120   -2.1530    5.2520 C   0  0  0  0  0  0  0  0  0  0  0  0
   16.1730   -2.2650    4.0670 C   0  0  0  0  0  0  0  0  0  0  0  0
   17.1240   -0.6450    5.7300 C   0  0  0  0  0  0  0  0  0  0  0  0
   15.5670   -0.8000    3.7640 S   0  0  0  0  0  0  0  0  0  0  0  0
   16.1640    0.1720    4.7970 C   0  0  0  0  0  0  0  0  0  0  0  0
   17.8960   -3.2580    5.8750 C   0  0  0  0  0  0  0  0  0  0  0  0
   18.5010   -4.0950    6.3610 N   0  0  0  0  0  0  0  0  0  0  0  0
   15.8760   -3.4530    3.3320 N   0  0  0  0  0  0  0  0  0  0  0  0
   17.8490    0.1180    6.8460 C   0  0  0  0  0  0  0  0  0  0  0  0
   16.0190    1.6740    5.0780 C   0  0  0  0  0  0  0  0  0  0  0  0
   17.8310    1.5280    6.7370 C   0  0  0  0  0  0  0  0  0  0  0  0
   16.5800    2.1390    6.2920 C   0  0  0  0  0  0  0  0  0  0  0  0
  2  1  1  0
  3  1  1  0
  4  2  1  0
  5  4  1  0
  5  3  1  0
  6  1  1  0
  7  6  1  0
  8  2  1  0
  9  3  1  0
 10  5  1  0
 11  9  1  0
 12 10  1  0
 12 11  1  0
M  END
$$$$

     RDKit          3D

 37 43  0  0  0  0  0  0  0  0999 V2000
   22.0830   -2.3420    7.0290 C   0  0  0  0  0  0  0  0  0  0  0  0
   18.2570   -1.5880    5.0940 C   0  0  2  0  0  0  0  0  0  0  0  0
   19.6250   -3.0980    6.6520 C   0  0  0  0  0  0  0  0  0  0  0  0
   20.8500   -3.0730    7.6540 C   0  0  0  0  0  0  0  0  0  0  0  0
   18.7800    0.8010    7.1090 C   0  0  0  0  0  0  0  0  0  0  0  0
   17.6720    0.7300    6.0650 C   0  0  0  0  0  0  0  0  0  0  0  0
   16.8180    1.8270    6.0280 C   0  0  0  0  0  0  0  0  0  0  0  0
   15.7520    1.8920    5.1210 C   0  0  0  0  0  0  0  0  0  0  0  0
   15.5270    0.8420    4.2340 C   0  0  0  0  0  0  0  0  0  0  0  0
   16.3930   -0.2920    4.2660 C   0  0  0  0  0  0  0  0  0  0  0  0
   16.1150   -1.3320    3.3370 C   0  0  0  0  0  0  0  0  0  0  0  0
   16.9040   -2.4700    3.2880 C   0  0  0  0  0  0  0  0  0  0  0  0
   17.9730   -2.5810    4.1680 C   0  0  0  0  0  0  0  0  0  0  0  0
   21.9130   -1.6570    5.8890 C   0  0  0  0  0  0  0  0  0  0  0  0
   20.6250   -1.5210    5.1380 C   0  0  0  0  0  0  0  0  0  0  0  0
   24.1510   -1.0310    5.8030 C   0  0  0  0  0  0  0  0  0  0  0  0
   26.5640   -0.6140    5.6060 C   0  0  0  0  0  0  0  0  0  0  0  0
   27.5710   -0.1260    4.4980 C   0  0  2  0  0  0  0  0  0  0  0  0
   27.4160    1.3980    4.2650 C   0  0  0  0  0  0  0  0  0  0  0  0
   27.4430    1.5530    3.0090 C   0  0  0  0  0  0  0  0  0  0  0  0
   26.8500    0.1740    2.3910 C   0  0  0  0  0  0  0  0  0  0  0  0
   28.2680   -1.2780    2.7120 C   0  0  0  0  0  0  0  0  0  0  0  0
   23.4220   -2.3700    7.6140 C   0  0  0  0  0  0  0  0  0  0  0  0
   23.2610   -2.6410    9.9760 C   0  0  2  0  0  0  0  0  0  0  0  0
   24.2640   -1.5170   10.2440 C   0  0  0  0  0  0  0  0  0  0  0  0
   25.5660   -2.2340    9.7820 C   0  0  0  0  0  0  0  0  0  0  0  0
   24.9850   -3.4500    9.0420 C   0  0  1  0  0  0  0  0  0  0  0  0
   25.1000   -4.7610    9.7250 C   0  0  0  0  0  0  0  0  0  0  0  0
   23.0570   -3.6750   11.0310 C   0  0  0  0  0  0  0  0  0  0  0  0
   17.4490   -0.3820    5.1470 C   0  0  0  0  0  0  0  0  0  0  0  0
   19.4400   -1.8360    5.8980 N   0  0  0  0  0  0  0  0  0  0  0  0
   22.9480   -0.9870    5.2580 N   0  0  0  0  0  0  0  0  0  0  0  0
   27.2690   -0.7750    3.1540 N   0  0  0  0  0  0  0  0  0  0  0  0
   24.3870   -1.7040    6.9500 N   0  0  0  0  0  0  0  0  0  0  0  0
   23.7840   -3.0730    8.9070 N   0  0  0  0  0  0  0  0  0  0  0  0
   24.3060   -4.7000   11.1260 N   0  0  0  0  0  0  0  0  0  0  0  0
   25.2340   -0.3210    5.1370 O   0  0  0  0  0  0  0  0  0  0  0  0
  4  3  1  0
  4  1  1  0
  6  5  1  0
  7  6  1  0
  8  7  1  0
  9  8  1  0
 10  9  1  0
 11 10  1  0
 12 11  1  0
 13 12  1  0
 13  2  1  0
 14  1  1  0
 15 14  1  0
 18 17  1  1
 19 18  1  0
 20 19  1  0
 21 20  1  0
 23  1  1  0
 24 25  1  1
 26 25  1  0
 27 26  1  1
 28 27  1  0
 29 24  1  0
 30 10  1  0
 30  2  1  0
 30  6  1  0
 31 15  1  0
  2 31  1  6
 31  3  1  0
 32 16  1  0
 32 14  1  0
 33 21  1  0
 33 22  1  0
 33 18  1  0
 34 23  1  0
 34 16  1  0
 35 27  1  0
 35 24  1  0
 35 23  1  0
 36 28  1  0
 36 29  1  0
 37 17  1  0
 37 16  1  0
M  END
$$$$

     RDKit          3D

 33 36  0  0  0  0  0  0  0  0999 V2000
   26.6650   -4.3450   12.9310 C   0  0  0  0  0  0  0  0  0  0  0  0
   25.2540   -4.5100   13.4860 C   0  0  0  0  0  0  0  0  0  0  0  0
   24.4230   -3.3000   13.0540 C   0  0  0  0  0  0  0  0  0  0  0  0
   23.8950   -2.5590   13.8210 O   0  0  0  0  0  0  0  0  0  0  0  0
   24.2790   -3.0260   11.6540 N   0  0  0  0  0  0  0  0  0  0  0  0
   23.5810   -1.9440   10.9190 C   0  0  0  0  0  0  0  0  0  0  0  0
   23.9210   -2.6250    9.6580 C   0  0  1  0  0  0  0  0  0  0  0  0
   24.7370   -3.6310   10.3810 C   0  0  0  0  0  0  0  0  0  0  0  0
   22.7130   -3.1530    9.0550 N   0  0  0  0  0  0  0  0  0  0  0  0
   22.1910   -2.4590    7.9090 C   0  0  0  0  0  0  0  0  0  0  0  0
   22.7370   -1.4790    7.4860 O   0  0  0  0  0  0  0  0  0  0  0  0
   20.9310   -3.0060    7.2580 C   0  0  0  0  0  0  0  0  0  0  0  0
   20.7850   -2.2980    6.0610 O   0  0  0  0  0  0  0  0  0  0  0  0
   19.8300   -1.2620    6.0860 C   0  0  0  0  0  0  0  0  0  0  0  0
   19.3820   -0.7130    7.3010 C   0  0  0  0  0  0  0  0  0  0  0  0
   18.4230    0.2980    7.2730 C   0  0  0  0  0  0  0  0  0  0  0  0
   17.9000    0.7600    6.0540 C   0  0  0  0  0  0  0  0  0  0  0  0
   16.5660    2.1900    6.0230 Br  0  0  0  0  0  0  0  0  0  0  0  0
   18.3420    0.2100    4.8480 C   0  0  0  0  0  0  0  0  0  0  0  0
   19.3030   -0.8000    4.8620 C   0  0  0  0  0  0  0  0  0  0  0  0
   19.7940   -1.3870    3.5290 C   0  0  0  0  0  0  0  0  0  0  0  0
   19.1060   -2.1220    2.9210 O   0  0  0  0  0  0  0  0  0  0  0  0
   21.1160   -1.0240    3.0220 N   0  0  0  0  0  0  0  0  0  0  0  0
   21.7750   -1.4600    1.7900 C   0  0  0  0  0  0  0  0  0  0  0  0
   22.9220   -0.5000    1.6890 C   0  0  0  0  0  0  0  0  0  0  0  0
   23.3270   -0.0600    2.8780 C   0  0  2  0  0  0  0  0  0  0  0  0
   22.0960   -0.2060    3.7320 C   0  0  0  0  0  0  0  0  0  0  0  0
   24.5730    0.7590    3.2540 C   0  0  0  0  0  0  0  0  0  0  0  0
   24.6470    1.3770    4.4990 C   0  0  0  0  0  0  0  0  0  0  0  0
   25.7590    2.1240    4.8560 C   0  0  0  0  0  0  0  0  0  0  0  0
   26.8100    2.2600    3.9520 C   0  0  0  0  0  0  0  0  0  0  0  0
   26.7290    1.6500    2.7070 C   0  0  0  0  0  0  0  0  0  0  0  0
   25.6220    0.9070    2.3590 C   0  0  0  0  0  0  0  0  0  0  0  0
  2  1  1  0
  3  2  1  0
  4  3  1  0
  5  3  1  0
  6  5  1  0
  7  6  1  0
  8  7  1  0
  8  5  1  0
  7  9  1  1
 10  9  1  0
 11 10  1  0
 12 10  1  0
 13 12  1  0
 14 13  1  0
 15 14  1  0
 16 15  1  0
 17 16  1  0
 18 17  1  0
 19 17  1  0
 20 19  1  0
 20 14  1  0
 21 20  1  0
 22 21  1  0
 23 21  1  0
 24 23  1  0
 25 24  1  0
 26 25  1  0
 27 23  1  0
 27 26  1  0
 26 28  1  6
 29 28  1  0
 30 29  1  0
 31 30  1  0
 32 31  1  0
 33 32  1  0
 33 28  1  0
M  END
$$$$

     RDKit          3D

 30 34  0  0  0  0  0  0  0  0999 V2000
   17.7800   -2.6320    4.3830 C   0  0  0  0  0  0  0  0  0  0  0  0
   24.1340   -1.7770    7.5310 N   0  0  0  0  0  0  0  0  0  0  0  0
   23.8990   -4.2860   11.0500 C   0  0  0  0  0  0  0  0  0  0  0  0
   24.2700   -3.5000    9.7910 C   0  0  0  0  0  0  0  0  0  0  0  0
   18.2150   -1.5380    5.1580 C   0  0  0  0  0  0  0  0  0  0  0  0
   22.0520   -2.3580   10.3430 C   0  0  0  0  0  0  0  0  0  0  0  0
   22.6100   -2.1470   11.7170 C   0  0  0  0  0  0  0  0  0  0  0  0
   22.9090   -1.0380    5.6170 N   0  0  0  0  0  0  0  0  0  0  0  0
   20.5490   -1.3050    5.2200 C   0  0  0  0  0  0  0  0  0  0  0  0
   19.5100   -2.8930    6.7550 C   0  0  0  0  0  0  0  0  0  0  0  0
   17.4900   -0.3210    5.0950 C   0  0  0  0  0  0  0  0  0  0  0  0
   20.4200   -2.6500    7.9710 C   0  0  0  0  0  0  0  0  0  0  0  0
   22.9890   -2.2340    8.0940 C   0  0  0  0  0  0  0  0  0  0  0  0
   21.7370   -2.1040    7.4060 C   0  0  1  0  0  0  0  0  0  0  0  0
   24.0380   -1.2140    6.3150 C   0  0  0  0  0  0  0  0  0  0  0  0
   16.6180   -2.5630    3.5660 C   0  0  0  0  0  0  0  0  0  0  0  0
   15.9040   -1.3640    3.4920 C   0  0  0  0  0  0  0  0  0  0  0  0
   16.3210   -0.2520    4.2630 C   0  0  0  0  0  0  0  0  0  0  0  0
   21.7600   -1.5160    6.1050 C   0  0  2  0  0  0  0  0  0  0  0  0
   19.3670   -1.6380    5.9460 N   0  0  0  0  0  0  0  0  0  0  0  0
   23.0770   -2.7870    9.3610 N   0  0  0  0  0  0  0  0  0  0  0  0
   23.4360   -3.3380   12.1130 N   0  0  0  0  0  0  0  0  0  0  0  0
   15.5860    0.9570    4.2130 C   0  0  0  0  0  0  0  0  0  0  0  0
   16.0310    2.0750    4.9760 C   0  0  0  0  0  0  0  0  0  0  0  0
   17.1990    2.0400    5.7910 C   0  0  0  0  0  0  0  0  0  0  0  0
   17.9180    0.8130    5.8560 C   0  0  0  0  0  0  0  0  0  0  0  0
   23.7770   -3.3850   13.4410 C   0  0  0  0  0  0  0  0  0  0  0  0
   24.7230   -4.5200   13.9620 C   0  0  0  0  0  0  0  0  0  0  0  0
   23.2950   -2.4910   14.1760 O   0  0  0  0  0  0  0  0  0  0  0  0
   26.1130   -3.9540   14.4170 C   0  0  0  0  0  0  0  0  0  0  0  0
  4  3  1  0
  5  1  1  0
  7  6  1  0
 11  5  1  0
 12 10  1  0
 13  2  1  0
 14 12  1  6
 14 13  1  0
 15  8  1  0
 15  2  1  0
 16  1  1  0
 17 16  1  0
 18 17  1  0
 18 11  1  0
 19  9  1  1
 19 14  1  0
 19  8  1  0
 20  9  1  0
 20  5  1  0
 20 10  1  0
 21 13  1  0
 21  6  1  0
 21  4  1  0
 22  7  1  0
 22  3  1  0
 23 18  1  0
 24 23  1  0
 25 24  1  0
 26 11  1  0
 26 25  1  0
 27 22  1  0
 28 27  1  0
 29 27  1  0
 30 28  1  0
M  END
$$$$

     RDKit          3D

 42 49  0  0  0  0  0  0  0  0999 V2000
   23.6500   -1.7250   10.5750 C   0  0  0  0  0  0  0  0  0  0  0  0
   25.0040   -2.0800    9.9670 C   0  0  0  0  0  0  0  0  0  0  0  0
   17.5130   -2.7470    3.8340 C   0  0  0  0  0  0  0  0  0  0  0  0
   16.4610   -2.5030    2.9180 C   0  0  0  0  0  0  0  0  0  0  0  0
   24.4290   -4.1510    8.5580 C   0  0  0  0  0  0  0  0  0  0  0  0
   25.0230   -3.6080    9.8650 C   0  0  2  0  0  0  0  0  0  0  0  0
   22.9440   -3.0930   10.7840 C   0  0  1  0  0  0  0  0  0  0  0  0
   22.1700   -3.5370    9.5160 C   0  0  0  0  0  0  0  0  0  0  0  0
   21.5880   -2.4770    6.6800 C   0  0  2  0  0  0  0  0  0  0  0  0
   21.4960   -1.5320    5.6430 C   0  0  2  0  0  0  0  0  0  0  0  0
   23.7730   -1.2440    5.7310 C   0  0  1  0  0  0  0  0  0  0  0  0
   22.8910   -2.7030    7.2350 C   0  0  0  0  0  0  0  0  0  0  0  0
   20.4120   -3.1980    7.0260 C   0  0  0  0  0  0  0  0  0  0  0  0
   19.0620   -1.9970    5.5230 C   0  0  1  0  0  0  0  0  0  0  0  0
   20.2240   -1.3460    5.1130 C   0  0  1  0  0  0  0  0  0  0  0  0
   17.8310   -1.7890    4.7770 C   0  0  1  0  0  0  0  0  0  0  0  0
   26.1650   -0.9270    5.7760 C   0  0  0  0  0  0  0  0  0  0  0  0
   15.7370   -1.3470    2.9460 C   0  0  0  0  0  0  0  0  0  0  0  0
   16.0740   -0.3590    3.8630 C   0  0  2  0  0  0  0  0  0  0  0  0
   17.0660   -0.6000    4.8550 C   0  0  2  0  0  0  0  0  0  0  0  0
   15.3010    0.8250    3.8970 C   0  0  0  0  0  0  0  0  0  0  0  0
   15.5320    1.7890    4.8140 C   0  0  0  0  0  0  0  0  0  0  0  0
   16.5400    1.5410    5.7520 C   0  0  0  0  0  0  0  0  0  0  0  0
   17.2920    0.3890    5.8320 C   0  0  0  0  0  0  0  0  0  0  0  0
   27.1800   -0.4190    4.7490 C   0  0  1  0  0  0  0  0  0  0  0  0
   26.9600    1.0670    4.3720 C   0  0  0  0  0  0  0  0  0  0  0  0
   27.0890    1.1180    2.8720 C   0  0  0  0  0  0  0  0  0  0  0  0
   26.5250   -0.2120    2.4340 C   0  0  0  0  0  0  0  0  0  0  0  0
   28.3310   -1.7680    3.0770 C   0  0  0  0  0  0  0  0  0  0  0  0
   28.9820   -1.9960    4.4100 C   0  0  0  0  0  0  0  0  0  0  0  0
   28.5850   -0.7490    5.2810 C   0  0  0  0  0  0  0  0  0  0  0  0
   18.2330    0.3300    6.9460 C   0  0  0  0  0  0  0  0  0  0  0  0
   18.9980    0.2900    7.8610 C   0  0  0  0  0  0  0  0  0  0  0  0
   20.1640   -0.3340    4.1420 F   0  0  0  0  0  0  0  0  0  0  0  0
   16.7620    2.5440    6.6730 F   0  0  0  0  0  0  0  0  0  0  0  0
   22.6280   -0.9070    5.1770 N   0  0  0  0  0  0  0  0  0  0  0  0
   23.9830   -2.1280    6.7320 N   0  0  0  0  0  0  0  0  0  0  0  0
   19.2350   -2.9750    6.4220 N   0  0  0  0  0  0  0  0  0  0  0  0
   23.1020   -3.5590    8.3100 N   0  0  0  0  0  0  0  0  0  0  0  0
   24.0880   -4.0140   10.9880 N   0  0  0  0  0  0  0  0  0  0  0  0
   27.0320   -1.1850    3.4720 N   0  0  0  0  0  0  0  0  0  0  0  0
   24.8440   -0.6910    5.1860 O   0  0  0  0  0  0  0  0  0  0  0  0
  2  1  1  0
  4  3  1  0
  6  5  1  6
  6  2  1  0
  7  1  1  6
  8  7  1  0
 10  9  1  0
 12  9  1  0
  9 13  1  6
 15 14  1  0
 15 10  1  0
 16  3  1  6
 16 14  1  0
 18  4  1  0
 19 18  1  1
 20 19  1  0
 20 16  1  0
 21 19  1  0
 22 21  1  0
 23 22  1  0
 20 24  1  6
 24 23  1  0
 25 17  1  1
 26 25  1  0
 27 26  1  0
 28 27  1  0
 30 29  1  0
 31 25  1  0
 31 30  1  0
 32 24  1  0
 33 32  1  0
 15 34  1  1
 35 23  1  0
 10 36  1  6
 36 11  1  0
 37 12  1  0
 37 11  1  0
 14 38  1  6
 38 13  1  0
 39 12  1  0
 39  8  1  0
 39  5  1  0
 40  7  1  0
 40  6  1  0
 41 28  1  0
 41 25  1  0
 41 29  1  0
 42 17  1  0
 11 42  1  6
M  END
$$$$

     RDKit          3D

 26 27  0  0  0  0  0  0  0  0999 V2000
   24.4030   -4.3130   11.9250 C   0  0  2  0  0  0  0  0  0  0  0  0
   27.3950   -5.0190   14.6170 C   0  0  0  0  0  0  0  0  0  0  0  0
   22.9480   -4.5830   11.9670 C   0  0  0  0  0  0  0  0  0  0  0  0
   22.0740   -3.4360   11.6120 C   0  0  0  0  0  0  0  0  0  0  0  0
   16.5770   -0.1740    7.6710 C   0  0  0  0  0  0  0  0  0  0  0  0
   14.0840   -0.8320    8.1620 Cl  0  0  0  0  0  0  0  0  0  0  0  0
   15.7430   -1.1550    8.2150 C   0  0  0  0  0  0  0  0  0  0  0  0
   16.2990   -2.3230    8.7830 C   0  0  0  0  0  0  0  0  0  0  0  0
   15.1490   -3.8670    9.6550 I   0  0  0  0  0  0  0  0  0  0  0  0
   17.6770   -2.5010    8.7950 C   0  0  0  0  0  0  0  0  0  0  0  0
   18.5080   -1.5070    8.2280 C   0  0  0  0  0  0  0  0  0  0  0  0
   19.9360   -1.6750    8.2280 N   0  0  0  0  0  0  0  0  0  0  0  0
   20.4740   -2.2490    9.3990 C   0  0  0  0  0  0  0  0  0  0  0  0
   21.8870   -1.8770    9.6100 C   0  0  0  0  0  0  0  0  0  0  0  0
   22.6580   -2.4500   10.7180 N   0  0  0  0  0  0  0  0  0  0  0  0
   24.0360   -2.0810   10.8970 C   0  0  0  0  0  0  0  0  0  0  0  0
   24.9080   -3.2810   10.9810 C   0  0  0  0  0  0  0  0  0  0  0  0
   25.1780   -5.5470   11.7660 N   0  0  0  0  0  0  0  0  0  0  0  0
   25.2360   -6.2250   13.2860 S   0  0  2  0  0  0  0  0  0  0  0  0
   25.9020   -5.0890   14.4810 C   0  0  0  0  0  0  0  0  0  0  0  0
   25.9660   -7.4870   13.2460 O   0  0  0  0  0  0  0  0  0  0  0  0
   23.9620   -6.7240   13.7180 O   0  0  0  0  0  0  0  0  0  0  0  0
   22.3610   -1.0460    8.8160 O   0  0  0  0  0  0  0  0  0  0  0  0
   17.9610   -0.3580    7.6740 C   0  0  0  0  0  0  0  0  0  0  0  0
   18.8360    0.5750    7.1300 O   0  0  0  0  0  0  0  0  0  0  0  0
   18.3650    1.5290    6.2090 C   0  0  0  0  0  0  0  0  0  0  0  0
  3  1  1  0
  4  3  1  0
  7  6  1  0
  7  5  1  0
  8  7  1  0
  9  8  1  0
 10  8  1  0
 11 10  1  0
 12 11  1  0
 13 12  1  0
 14 13  1  0
 15 14  1  0
 15  4  1  0
 16 15  1  0
 17 16  1  0
 17  1  1  0
  1 18  1  6
 19 18  1  0
 20 19  1  0
 20  2  1  0
 19 21  1  6
 22 19  1  0
 23 14  1  0
 24 11  1  0
 24  5  1  0
 25 24  1  0
 26 25  1  0
M  END
$$$$

     RDKit          3D

 27 29  0  0  0  0  0  0  0  0999 V2000
   23.9010   -3.7720   10.4080 C   0  0  2  0  0  0  0  0  0  0  0  0
   25.9410   -5.2290   12.7570 C   0  0  0  0  0  0  0  0  0  0  0  0
   23.8250   -2.3620   10.9220 C   0  0  0  0  0  0  0  0  0  0  0  0
   19.2320   -0.0720    9.8580 C   0  0  0  0  0  0  0  0  0  0  0  0
   17.8870   -0.6470    9.9610 C   0  0  0  0  0  0  0  0  0  0  0  0
   19.1230    1.6590    6.2530 Cl  0  0  0  0  0  0  0  0  0  0  0  0
   18.7100    0.7880    7.6700 C   0  0  0  0  0  0  0  0  0  0  0  0
   19.5990    0.6270    8.7250 C   0  0  0  0  0  0  0  0  0  0  0  0
   20.9330    1.2150    8.5770 N   0  0  0  0  0  0  0  0  0  0  0  0
   22.1250    0.4940    8.9770 C   0  0  0  0  0  0  0  0  0  0  0  0
   22.3470   -0.7630    8.2540 C   0  0  0  0  0  0  0  0  0  0  0  0
   23.3680   -1.6550    8.7020 N   0  0  0  0  0  0  0  0  0  0  0  0
   23.6130   -2.9420    8.0950 C   0  0  0  0  0  0  0  0  0  0  0  0
   23.1550   -3.9220    9.1190 C   0  0  0  0  0  0  0  0  0  0  0  0
   23.3960   -4.6450   11.4980 N   0  0  0  0  0  0  0  0  0  0  0  0
   24.4580   -5.8500   11.9480 S   0  0  2  0  0  0  0  0  0  0  0  0
   25.7660   -4.5510   14.0910 C   0  0  0  0  0  0  0  0  0  0  0  0
   23.8100   -6.8180   12.8240 O   0  0  0  0  0  0  0  0  0  0  0  0
   24.8370   -6.6230   10.7490 O   0  0  0  0  0  0  0  0  0  0  0  0
   24.2020   -1.4050    9.8580 C   0  0  0  0  0  0  0  0  0  0  0  0
   21.6240   -1.0450    7.2900 O   0  0  0  0  0  0  0  0  0  0  0  0
   19.9400   -0.3540   11.0370 N   0  0  0  0  0  0  0  0  0  0  0  0
   19.0410   -1.1480   11.9900 S   0  0  0  0  0  0  0  0  0  0  0  0
   17.7290   -1.3000   11.2000 N   0  0  0  0  0  0  0  0  0  0  0  0
   17.0320   -0.4590    8.9060 C   0  0  0  0  0  0  0  0  0  0  0  0
   15.4170   -1.0940    8.9510 Cl  0  0  0  0  0  0  0  0  0  0  0  0
   17.3940    0.2370    7.7830 C   0  0  0  0  0  0  0  0  0  0  0  0
  3  1  1  0
  5  4  1  0
  7  6  1  0
  8  7  1  0
  8  4  1  0
  9  8  1  0
 10  9  1  0
 11 10  1  0
 12 11  1  0
 13 12  1  0
 14 13  1  0
 14  1  1  0
  1 15  1  1
 16 15  1  0
 16  2  1  0
 17  2  1  0
 16 18  1  1
 19 16  1  0
 20 12  1  0
 20  3  1  0
 21 11  1  0
 22  4  1  0
 23 22  1  0
 24  5  1  0
 24 23  1  0
 25  5  1  0
 26 25  1  0
 27 25  1  0
 27  7  1  0
M  END
$$$$

     RDKit          3D

 35 39  0  0  0  0  0  0  0  0999 V2000
   24.5070   -4.3890   13.1260 C   0  0  0  0  0  0  0  0  0  0  0  0
   23.8070   -3.0750   12.7810 C   0  0  0  0  0  0  0  0  0  0  0  0
   23.2380   -3.9820   10.5300 C   0  0  0  0  0  0  0  0  0  0  0  0
   23.5190   -1.4430    5.4770 C   0  0  0  0  0  0  0  0  0  0  0  0
   21.2760   -0.9410    5.6400 C   0  0  1  0  0  0  0  0  0  0  0  0
   21.2050   -1.4370    6.9490 C   0  0  1  0  0  0  0  0  0  0  0  0
   22.3960   -1.9510    7.5320 C   0  0  1  0  0  0  0  0  0  0  0  0
   22.6900   -1.2290    9.8730 C   0  0  0  0  0  0  0  0  0  0  0  0
   22.4740   -1.7420   11.2880 C   0  0  1  0  0  0  0  0  0  0  0  0
   21.0230   -2.0530   11.6150 C   0  0  0  0  0  0  0  0  0  0  0  0
   19.9950   -1.3090    7.6560 C   0  0  0  0  0  0  0  0  0  0  0  0
   18.8810   -0.7450    7.0900 C   0  0  1  0  0  0  0  0  0  0  0  0
   18.9150   -0.2470    5.7840 C   0  0  0  0  0  0  0  0  0  0  0  0
   17.0410   -0.3150    4.1120 C   0  0  0  0  0  0  0  0  0  0  0  0
   15.8990    0.2710    3.5510 C   0  0  0  0  0  0  0  0  0  0  0  0
   15.4200    1.4840    4.0210 C   0  0  0  0  0  0  0  0  0  0  0  0
   16.0110    2.1300    5.0890 C   0  0  0  0  0  0  0  0  0  0  0  0
   26.0110   -2.0240    6.7440 C   0  0  0  0  0  0  0  0  0  0  0  0
   17.3840   -0.7170    7.9820 Cl  0  0  0  0  0  0  0  0  0  0  0  0
   17.6930    0.3710    5.1410 C   0  0  1  0  0  0  0  0  0  0  0  0
   17.1540    1.5660    5.6060 C   0  0  0  0  0  0  0  0  0  0  0  0
   17.8200    2.2240    6.5750 F   0  0  0  0  0  0  0  0  0  0  0  0
   17.4880   -1.5390    3.7140 O   0  0  0  0  0  0  0  0  0  0  0  0
   20.1150   -0.3730    5.0920 C   0  0  0  0  0  0  0  0  0  0  0  0
   20.2030    0.0640    3.8200 F   0  0  0  0  0  0  0  0  0  0  0  0
   22.4370   -0.9250    4.9150 N   0  0  0  0  0  0  0  0  0  0  0  0
   23.5550   -1.9710    6.7640 C   0  0  2  0  0  0  0  0  0  0  0  0
   24.7490   -2.3720    7.3940 N   0  0  0  0  0  0  0  0  0  0  0  0
   24.7060   -3.0280    8.6030 C   0  0  1  0  0  0  0  0  0  0  0  0
   25.7280   -3.2130    9.2660 O   0  0  0  0  0  0  0  0  0  0  0  0
   22.4010   -2.3160    8.9290 N   0  0  0  0  0  0  0  0  0  0  0  0
   23.3440   -3.4300    9.1060 C   0  0  2  0  0  0  0  0  0  0  0  0
   23.3370   -2.9080   11.5540 N   0  0  0  0  0  0  0  0  0  0  0  0
   23.6650   -2.1790   13.6170 O   0  0  0  0  0  0  0  0  0  0  0  0
   25.6000   -4.2000   13.9530 C   0  0  0  0  0  0  0  0  0  0  0  0
  2  1  1  0
  6  5  1  0
  7  6  1  0
  9  8  1  0
  9 10  1  6
  6 11  1  1
 12 11  1  0
 13 12  1  0
 15 14  1  0
 16 15  1  0
 17 16  1  0
 12 19  1  6
 20 14  1  0
 20 13  1  1
 21 17  1  0
 21 20  1  0
 22 21  1  0
 23 14  1  0
 24 13  1  0
 24  5  1  0
 25 24  1  0
  5 26  1  1
 26  4  1  0
 27  7  1  0
 27  4  1  1
 28 27  1  0
 28 18  1  0
 29 28  1  0
 29 30  1  1
 31  8  1  0
  7 31  1  1
 32 31  1  0
 32 29  1  0
 32  3  1  1
 33  3  1  0
 33  9  1  0
 33  2  1  0
 34  2  1  0
 35  1  1  0
M  END
$$$$

     RDKit          3D

 26 28  0  0  0  0  0  0  0  0999 V2000
   23.8940    1.7730    4.6800 C   0  0  0  0  0  0  0  0  0  0  0  0
   25.2900    1.8480    4.7650 C   0  0  0  0  0  0  0  0  0  0  0  0
   26.0910    1.3880    3.7290 C   0  0  0  0  0  0  0  0  0  0  0  0
   23.2820    1.2100    3.5740 C   0  0  0  0  0  0  0  0  0  0  0  0
   24.0730    0.7430    2.5290 C   0  0  0  0  0  0  0  0  0  0  0  0
   25.4850    0.8470    2.6000 C   0  0  0  0  0  0  0  0  0  0  0  0
   26.2860    0.4620    1.5510 O   0  0  0  0  0  0  0  0  0  0  0  0
   25.6410    0.1820    0.2810 C   0  0  1  0  0  0  0  0  0  0  0  0
   24.2080   -0.3210    0.3250 C   0  0  0  0  0  0  0  0  0  0  0  0
   23.4350    0.2000    1.4410 O   0  0  0  0  0  0  0  0  0  0  0  0
   25.9730    1.3950   -0.5720 C   0  0  0  0  0  0  0  0  0  0  0  0
   26.7930    1.0540   -1.7270 N   0  0  0  0  0  0  0  0  0  0  0  0
   26.4000    1.2580   -2.9900 C   0  0  0  0  0  0  0  0  0  0  0  0
   26.7250    0.1820   -3.9850 C   0  0  2  0  0  0  0  0  0  0  0  0
   25.8110    2.2810   -3.3320 O   0  0  0  0  0  0  0  0  0  0  0  0
   27.8520    0.2770   -4.8070 C   0  0  0  0  0  0  0  0  0  0  0  0
   28.0930   -0.6660   -5.7950 C   0  0  0  0  0  0  0  0  0  0  0  0
   27.2010   -1.7230   -5.9790 C   0  0  1  0  0  0  0  0  0  0  0  0
   26.1020   -1.8580   -5.1340 C   0  0  0  0  0  0  0  0  0  0  0  0
   25.8670   -0.9100   -4.1500 C   0  0  0  0  0  0  0  0  0  0  0  0
   27.4670   -2.4710   -7.1120 O   0  0  0  0  0  0  0  0  0  0  0  0
   26.6250   -3.5990   -7.4500 C   0  0  0  0  0  0  0  0  0  0  0  0
   27.1100   -4.2150   -8.7590 C   0  0  0  0  0  0  0  0  0  0  0  0
   26.9840   -5.6760   -8.9450 N   0  0  0  0  0  0  0  0  0  0  0  0
   25.6030   -6.1030   -9.1960 C   0  0  0  0  0  0  0  0  0  0  0  0
   27.8630   -6.1420  -10.0200 C   0  0  0  0  0  0  0  0  0  0  0  0
  2  1  1  0
  3  2  1  0
  4  1  1  0
  5  4  1  0
  6  5  1  0
  6  3  1  0
  7  6  1  0
  8  7  1  0
  9  8  1  0
 10  9  1  0
 10  5  1  0
  8 11  1  6
 12 11  1  0
 13 12  1  0
 14 13  1  6
 15 13  1  0
 16 14  1  0
 17 16  1  0
 18 17  1  0
 19 18  1  0
 20 19  1  0
 20 14  1  0
 18 21  1  6
 22 21  1  0
 23 22  1  0
 24 23  1  0
 25 24  1  0
 26 24  1  0
M  END
$$$$

     RDKit          3D

 34 39  0  0  0  0  0  0  0  0999 V2000
   24.8520   -4.4160   13.4290 C   0  0  0  0  0  0  0  0  0  0  0  0
   24.1380   -3.1910   12.9040 C   0  0  2  0  0  0  0  0  0  0  0  0
   24.9250   -3.4950   10.4960 C   0  0  0  0  0  0  0  0  0  0  0  0
   21.9420   -1.4010    5.7000 C   0  0  1  0  0  0  0  0  0  0  0  0
   20.7790   -0.9280    5.0640 C   0  0  0  0  0  0  0  0  0  0  0  0
   19.5200   -1.0650    5.5880 C   0  0  2  0  0  0  0  0  0  0  0  0
   19.3930   -1.6830    6.8270 C   0  0  0  0  0  0  0  0  0  0  0  0
   20.4930   -2.1460    7.5150 C   0  0  0  0  0  0  0  0  0  0  0  0
   20.7300   -3.6110    9.4660 C   0  0  0  0  0  0  0  0  0  0  0  0
   21.3520   -2.8830   10.5400 C   0  0  0  0  0  0  0  0  0  0  0  0
   22.4890   -2.0520    9.9840 C   0  0  1  0  0  0  0  0  0  0  0  0
   23.4340   -1.7070   11.0990 C   0  0  0  0  0  0  0  0  0  0  0  0
   18.3190   -0.7460    4.7590 C   0  0  1  0  0  0  0  0  0  0  0  0
   15.8910   -0.3220    3.3740 C   0  0  0  0  0  0  0  0  0  0  0  0
   16.5510   -1.5390    3.2930 C   0  0  2  0  0  0  0  0  0  0  0  0
   17.7690   -1.7720    3.9570 C   0  0  0  0  0  0  0  0  0  0  0  0
   18.1470   -3.0750    3.5550 C   0  0  0  0  0  0  0  0  0  0  0  0
   24.1450   -1.8590    5.5880 C   0  0  0  0  0  0  0  0  0  0  0  0
   17.8260   -1.8850    7.5130 Cl  0  0  0  0  0  0  0  0  0  0  0  0
   21.8170   -2.0040    6.9990 C   0  0  1  0  0  0  0  0  0  0  0  0
   20.0960   -2.6890    8.7360 O   0  0  0  0  0  0  0  0  0  0  0  0
   23.1970   -2.7490    8.8920 N   0  0  0  0  0  0  0  0  0  0  0  0
   24.0450   -3.8600    9.3200 C   0  0  0  0  0  0  0  0  0  0  0  0
   24.1450   -2.8950   11.5830 N   0  0  0  0  0  0  0  0  0  0  0  0
   23.6170   -2.4590   13.7270 O   0  0  0  0  0  0  0  0  0  0  0  0
   26.0350   -4.0630   14.2840 C   0  0  0  0  0  0  0  0  0  0  0  0
   23.1210   -1.3330    4.9990 N   0  0  0  0  0  0  0  0  0  0  0  0
   24.2250   -2.3960    6.8090 N   0  0  0  0  0  0  0  0  0  0  0  0
   23.0610   -2.4020    7.5080 C   0  0  2  0  0  0  0  0  0  0  0  0
   17.2660   -3.5970    2.7260 N   0  0  0  0  0  0  0  0  0  0  0  0
   16.2890   -2.6580    2.5740 N   0  0  0  0  0  0  0  0  0  0  0  0
   16.4780    0.6900    4.1120 C   0  0  0  0  0  0  0  0  0  0  0  0
   17.6700    0.5070    4.8100 C   0  0  0  0  0  0  0  0  0  0  0  0
   18.2030    1.6540    5.6370 C   0  0  0  0  0  0  0  0  0  0  0  0
  2  1  1  0
  4  5  1  6
  6  5  1  6
  7  6  1  0
  8  7  1  0
 10  9  1  0
 11 10  1  1
 12 11  1  0
 13  6  1  0
 15 14  1  6
 16 15  1  0
 16 13  1  0
 17 16  1  0
 19  7  1  0
 20  8  1  6
 20  4  1  0
 21  9  1  0
 21  8  1  0
 22 11  1  0
 23 22  1  0
 23  3  1  0
 24  3  1  0
 24 12  1  0
 24  2  1  0
  2 25  1  1
 26  1  1  0
 27 18  1  0
 27  4  1  0
 28 18  1  0
 29 28  1  1
 29 22  1  0
 29 20  1  0
 30 17  1  0
 31 30  1  0
 31 15  1  0
 32 14  1  0
 33 32  1  0
 13 33  1  1
 34 33  1  0
M  END
$$$$

     RDKit          3D

 33 37  0  0  0  0  0  0  0  0999 V2000
   27.6600    0.9280    2.1390 C   0  0  0  0  0  0  0  0  0  0  0  0
   27.1000    0.0160    1.0970 C   0  0  0  0  0  0  0  0  0  0  0  0
   27.7590   -1.2610    1.4440 C   0  0  0  0  0  0  0  0  0  0  0  0
   26.3740    0.3790    4.2890 C   0  0  2  0  0  0  0  0  0  0  0  0
   24.0930   -0.4910    5.4000 N   0  0  0  0  0  0  0  0  0  0  0  0
   25.2200   -0.9960    5.8800 C   0  0  0  0  0  0  0  0  0  0  0  0
   15.8070    1.6090    4.9680 C   0  0  0  0  0  0  0  0  0  0  0  0
   17.8360    1.5590    6.3930 C   0  0  0  0  0  0  0  0  0  0  0  0
   17.2880   -0.4610    5.0270 C   0  0  0  0  0  0  0  0  0  0  0  0
   17.4210   -1.7450    4.4110 C   0  0  0  0  0  0  0  0  0  0  0  0
   16.4650   -1.9940    3.4340 C   0  0  0  0  0  0  0  0  0  0  0  0
   17.9940   -0.7670    7.3950 C   0  0  0  0  0  0  0  0  0  0  0  0
   21.6520   -0.4130    5.5940 C   0  0  2  0  0  0  0  0  0  0  0  0
   28.9040   -2.0900    3.5040 C   0  0  0  0  0  0  0  0  0  0  0  0
   22.9650   -0.9270    5.9700 C   0  0  2  0  0  0  0  0  0  0  0  0
   25.2830   -1.9220    6.9220 C   0  0  0  0  0  0  0  0  0  0  0  0
   16.3440    1.8630    6.3580 C   0  0  0  0  0  0  0  0  0  0  0  0
   18.1810    0.0700    6.1230 C   0  0  2  0  0  0  0  0  0  0  0  0
   16.2320    0.2360    4.5290 C   0  0  0  0  0  0  0  0  0  0  0  0
   19.6250   -0.0140    5.7110 C   0  0  0  0  0  0  0  0  0  0  0  0
   27.6210    0.1220    3.4410 C   0  0  1  0  0  0  0  0  0  0  0  0
   18.4300   -2.7140    4.7100 C   0  0  0  0  0  0  0  0  0  0  0  0
   26.3300    1.7530    4.9230 C   0  0  0  0  0  0  0  0  0  0  0  0
   24.0540   -2.2780    7.4360 C   0  0  0  0  0  0  0  0  0  0  0  0
   22.8890   -1.7930    6.9880 N   0  0  0  0  0  0  0  0  0  0  0  0
   27.7570   -1.3090    2.9460 N   0  0  1  0  0  0  0  0  0  0  0  0
   21.4540    0.3760    4.5680 N   0  0  0  0  0  0  0  0  0  0  0  0
   20.5320   -0.6620    6.3400 N   0  0  0  0  0  0  0  0  0  0  0  0
   16.3270   -3.1100    2.6660 N   0  0  0  0  0  0  0  0  0  0  0  0
   19.2410   -3.5030    4.8900 N   0  0  0  0  0  0  0  0  0  0  0  0
   20.0550    0.6530    4.6370 O   0  0  0  0  0  0  0  0  0  0  0  0
   26.4080   -0.6200    5.3480 O   0  0  0  0  0  0  0  0  0  0  0  0
   15.3990   -0.6400    3.2690 S   0  0  0  0  0  0  0  0  0  0  0  0
  2  1  1  0
  3  2  1  0
  6  5  1  0
 10  9  1  0
 11 10  1  0
 15 13  1  0
 15  5  1  1
 16  6  1  0
 17  7  1  0
 17  8  1  0
 18  9  1  0
 18 12  1  1
 18  8  1  0
 19  7  1  0
 19  9  1  0
 20 18  1  0
 21  4  1  0
 21  1  1  6
 22 10  1  0
  4 23  1  1
 24 16  1  0
 25 24  1  0
 25 15  1  0
 26 21  1  0
 26 14  1  1
 26  3  1  0
 13 27  1  1
 28 20  1  0
 28 13  1  0
 29 11  1  0
 30 22  1  0
 31 27  1  0
 31 20  1  0
 32  4  1  0
 32  6  1  0
 33 19  1  0
 33 11  1  0
M  CHG  1  26   1
M  END
$$$$

     RDKit          3D

 31 35  0  0  0  0  0  0  0  0999 V2000
   25.2330   -4.3150   13.6150 C   0  0  0  0  0  0  0  0  0  0  0  0
   24.2330   -3.2900   13.2850 C   0  0  0  0  0  0  0  0  0  0  0  0
   22.6550   -2.2370   11.7380 C   0  0  0  0  0  0  0  0  0  0  0  0
   21.9950   -1.5330    6.0340 C   0  0  0  0  0  0  0  0  0  0  0  0
   20.8340   -1.2350    5.3070 C   0  0  0  0  0  0  0  0  0  0  0  0
   19.5940   -1.3950    5.9090 C   0  0  0  0  0  0  0  0  0  0  0  0
   18.3490   -1.0910    5.1630 C   0  0  0  0  0  0  0  0  0  0  0  0
   17.7810    0.1750    5.2080 C   0  0  0  0  0  0  0  0  0  0  0  0
   18.4280    1.2690    6.0160 C   0  0  0  0  0  0  0  0  0  0  0  0
   16.6140    0.4430    4.5070 C   0  0  0  0  0  0  0  0  0  0  0  0
   15.9990   -0.5350    3.7590 C   0  0  0  0  0  0  0  0  0  0  0  0
   16.5440   -1.8140    3.6980 C   0  0  0  0  0  0  0  0  0  0  0  0
   18.0300   -3.4590    4.1510 C   0  0  0  0  0  0  0  0  0  0  0  0
   20.6160   -2.1440    7.9510 C   0  0  0  0  0  0  0  0  0  0  0  0
   21.8840   -1.9930    7.3750 C   0  0  0  0  0  0  0  0  0  0  0  0
   24.2240   -3.5790    9.6850 C   0  0  0  0  0  0  0  0  0  0  0  0
   24.0230   -4.2640   11.0410 C   0  0  0  0  0  0  0  0  0  0  0  0
   17.9320   -2.0380    7.9490 Cl  0  0  0  0  0  0  0  0  0  0  0  0
   19.5000   -1.8510    7.2300 C   0  0  0  0  0  0  0  0  0  0  0  0
   17.7250   -2.1030    4.4010 C   0  0  0  0  0  0  0  0  0  0  0  0
   17.1170   -3.9560    3.3670 N   0  0  0  0  0  0  0  0  0  0  0  0
   16.1730   -2.9690    3.0590 N   0  0  0  0  0  0  0  0  0  0  0  0
   23.2200   -1.3950    5.4980 N   0  0  0  0  0  0  0  0  0  0  0  0
   24.2900   -1.6850    6.2000 C   0  0  0  0  0  0  0  0  0  0  0  0
   24.2350   -2.1180    7.4530 N   0  0  0  0  0  0  0  0  0  0  0  0
   23.0800   -2.2860    8.0850 C   0  0  0  0  0  0  0  0  0  0  0  0
   23.0560   -2.7410    9.3900 N   0  0  0  0  0  0  0  0  0  0  0  0
   22.9720   -1.6450   10.3630 C   0  0  0  0  0  0  0  0  0  0  0  0
   23.6610   -3.2640   12.0630 N   0  0  0  0  0  0  0  0  0  0  0  0
   23.9210   -2.4620   14.1190 O   0  0  0  0  0  0  0  0  0  0  0  0
   25.5360   -4.2160   15.0500 C   0  0  0  0  0  0  0  0  0  0  0  0
  2  1  1  0
  5  4  1  0
  6  5  1  0
  7  6  1  0
  8  7  1  0
  9  8  1  0
 10  8  1  0
 11 10  1  0
 12 11  1  0
 15 14  1  0
 15  4  1  0
 17 16  1  0
 19 18  1  0
 19 14  1  0
 19  6  1  0
 20 13  1  0
 20 12  1  0
 20  7  1  0
 21 13  1  0
 22 21  1  0
 22 12  1  0
 23  4  1  0
 24 23  1  0
 25 24  1  0
 26 25  1  0
 26 15  1  0
 27 26  1  0
 27 16  1  0
 28 27  1  0
 28  3  1  0
 29 17  1  0
 29  3  1  0
 29  2  1  0
 30  2  1  0
 31  1  1  0
M  END
$$$$

     RDKit          3D

 28 31  0  0  0  0  0  0  0  0999 V2000
   21.0740   -0.6790    5.2180 C   0  0  0  0  0  0  0  0  0  0  0  0
   19.7380   -0.6030    5.8000 C   0  0  2  0  0  0  0  0  0  0  0  0
   23.2010   -1.6230   10.3600 C   0  0  0  0  0  0  0  0  0  0  0  0
   22.6300   -0.9710    9.2550 C   0  0  0  0  0  0  0  0  0  0  0  0
   18.0150   -1.2690    4.1140 C   0  0  2  0  0  0  0  0  0  0  0  0
   16.8630   -1.1090    3.3590 C   0  0  0  0  0  0  0  0  0  0  0  0
   16.1140    0.0680    3.4370 C   0  0  0  0  0  0  0  0  0  0  0  0
   16.5590    1.0420    4.3420 C   0  0  0  0  0  0  0  0  0  0  0  0
   17.7420    0.8970    5.0880 C   0  0  1  0  0  0  0  0  0  0  0  0
   18.1720    2.0300    6.0260 C   0  0  0  0  0  0  0  0  0  0  0  0
   18.4470   -2.6590    3.7280 C   0  0  0  0  0  0  0  0  0  0  0  0
   18.7950   -1.0670    8.1170 C   0  0  0  0  0  0  0  0  0  0  0  0
   22.8930   -2.9640   10.6370 C   0  0  1  0  0  0  0  0  0  0  0  0
   23.8160   -3.2850   12.9400 C   0  0  0  0  0  0  0  0  0  0  0  0
   24.4500   -4.2950   13.8190 C   0  0  0  0  0  0  0  0  0  0  0  0
   25.9630   -4.0980   14.0420 C   0  0  0  0  0  0  0  0  0  0  0  0
   21.8430   -1.0240    6.1580 N   0  0  0  0  0  0  0  0  0  0  0  0
   19.8910   -0.9530    7.0850 C   0  0  0  0  0  0  0  0  0  0  0  0
   21.1700   -1.1420    7.3150 N   0  0  0  0  0  0  0  0  0  0  0  0
   21.4840   -0.3880    3.7980 C   0  0  0  0  0  0  0  0  0  0  0  0
   18.4700   -0.3020    5.0230 C   0  0  2  0  0  0  0  0  0  0  0  0
   21.7250   -1.6600    8.4390 C   0  0  1  0  0  0  0  0  0  0  0  0
   21.4900   -3.0140    8.6800 C   0  0  0  0  0  0  0  0  0  0  0  0
   22.0760   -3.6670    9.7560 C   0  0  0  0  0  0  0  0  0  0  0  0
   17.5970   -3.1240    2.8860 N   0  0  0  0  0  0  0  0  0  0  0  0
   16.6250   -2.2120    2.6100 N   0  0  0  0  0  0  0  0  0  0  0  0
   23.4890   -3.6940   11.6950 N   0  0  0  0  0  0  0  0  0  0  0  0
   23.6260   -2.1580   13.3800 O   0  0  0  0  0  0  0  0  0  0  0  0
  2  1  1  6
  4  3  1  0
  6  5  1  0
  7  6  1  0
  8  7  1  0
  9  8  1  0
  9 10  1  1
  5 11  1  1
 13  3  1  0
 15 14  1  0
 16 15  1  0
 17  1  1  0
 18 12  1  0
 18  2  1  0
 19 18  1  0
 19 17  1  0
 20  1  1  0
 21  9  1  0
 21  5  1  0
 21  2  1  6
 22 19  1  6
 22  4  1  0
 23 22  1  0
 24 23  1  0
 24 13  1  0
 25 11  1  0
 26 25  1  0
 26  6  1  0
 13 27  1  6
 27 14  1  0
 28 14  1  0
M  END
$$$$

     RDKit          3D

 32 36  0  0  0  0  0  0  0  0999 V2000
   18.0390    0.0580    6.1330 C   0  0  1  0  0  0  0  0  0  0  0  0
   16.1460    0.3030    4.4710 C   0  0  2  0  0  0  0  0  0  0  0  0
   17.1750   -0.4210    4.9850 C   0  0  2  0  0  0  0  0  0  0  0  0
   17.2890   -1.6940    4.3620 C   0  0  0  0  0  0  0  0  0  0  0  0
   16.3330   -1.9130    3.3760 C   0  0  0  0  0  0  0  0  0  0  0  0
   17.6860   -0.7370    7.4000 C   0  0  0  0  0  0  0  0  0  0  0  0
   22.8350   -1.0930    6.0770 C   0  0  0  0  0  0  0  0  0  0  0  0
   25.2640   -2.1390    6.7500 C   0  0  0  0  0  0  0  0  0  0  0  0
   24.1280   -2.5940    7.3940 C   0  0  0  0  0  0  0  0  0  0  0  0
   22.8940   -2.0710    7.0590 C   0  0  0  0  0  0  0  0  0  0  0  0
   26.0360    0.4070    4.0950 C   0  0  2  0  0  0  0  0  0  0  0  0
   15.7080    1.6570    4.9430 C   0  0  0  0  0  0  0  0  0  0  0  0
   19.5010   -0.1080    5.7690 C   0  0  0  0  0  0  0  0  0  0  0  0
   21.5310   -0.5210    5.6840 C   0  0  0  0  0  0  0  0  0  0  0  0
   25.1130   -1.1530    5.7760 C   0  0  0  0  0  0  0  0  0  0  0  0
   16.2940    1.9180    6.3220 C   0  0  0  0  0  0  0  0  0  0  0  0
   18.2820   -2.6790    4.6630 C   0  0  0  0  0  0  0  0  0  0  0  0
   26.8980    0.1470    2.8490 C   0  0  0  0  0  0  0  0  0  0  0  0
   28.3170   -1.4140    4.0850 C   0  0  0  0  0  0  0  0  0  0  0  0
   17.7760    1.5680    6.3470 C   0  0  0  0  0  0  0  0  0  0  0  0
   27.5310   -1.2090    5.3780 C   0  0  0  0  0  0  0  0  0  0  0  0
   29.1990   -0.2740    2.0800 C   0  0  0  0  0  0  0  0  0  0  0  0
   26.3410    1.7620    4.7130 C   0  0  0  0  0  0  0  0  0  0  0  0
   21.3370    0.1890    4.6050 N   0  0  0  0  0  0  0  0  0  0  0  0
   20.3930   -0.7320    6.4480 N   0  0  0  0  0  0  0  0  0  0  0  0
   16.1650   -3.0050    2.6030 N   0  0  0  0  0  0  0  0  0  0  0  0
   23.9210   -0.6310    5.4370 N   0  0  0  0  0  0  0  0  0  0  0  0
   19.0590   -3.4970    4.8690 N   0  0  0  0  0  0  0  0  0  0  0  0
   26.1980   -0.6750    5.0820 N   0  0  0  0  0  0  0  0  0  0  0  0
   28.2990   -0.1680    3.2650 N   0  0  0  0  0  0  0  0  0  0  0  0
   19.9420    0.4780    4.6520 O   0  0  0  0  0  0  0  0  0  0  0  0
   15.2950   -0.5440    3.2190 S   0  0  0  0  0  0  0  0  0  0  0  0
  3  2  1  0
  3  1  1  0
  3  4  1  1
  5  4  1  0
  1  6  1  1
  9  8  1  0
 10  9  1  0
 10  7  1  0
  2 12  1  1
 13  1  1  0
 14  7  1  0
 15  8  1  0
 16 12  1  0
 17  4  1  0
 18 11  1  0
 20 16  1  0
 20  1  1  0
 21 19  1  0
 11 23  1  1
 24 14  1  0
 25 14  1  0
 25 13  1  0
 26  5  1  0
 27 15  1  0
 27  7  1  0
 28 17  1  0
 29 11  1  0
 29 15  1  0
 29 21  1  0
 30 18  1  0
 30 22  1  0
 30 19  1  0
 31 24  1  0
 31 13  1  0
 32  5  1  0
 32  2  1  0
M  END
$$$$

     RDKit          3D

 43 49  0  0  0  0  0  0  0  0999 V2000
   20.1750   -2.2440    7.6460 C   0  0  0  0  0  0  0  0  0  0  0  0
   15.5530   -0.7170    3.4830 C   0  0  0  0  0  0  0  0  0  0  0  0
   21.3930   -1.8600    7.0400 C   0  0  0  0  0  0  0  0  0  0  0  0
   18.9110   -1.0360    5.9740 C   0  0  2  0  0  0  0  0  0  0  0  0
   15.8630    0.4060    4.2420 C   0  0  0  0  0  0  0  0  0  0  0  0
   16.9530    0.3740    5.1250 C   0  0  0  0  0  0  0  0  0  0  0  0
   21.3620   -1.0030    5.9220 C   0  0  2  0  0  0  0  0  0  0  0  0
   20.1210   -0.6390    5.4100 C   0  0  2  0  0  0  0  0  0  0  0  0
   18.9590   -1.8360    7.1030 C   0  0  0  0  0  0  0  0  0  0  0  0
   17.6890   -0.7940    5.2040 C   0  0  1  0  0  0  0  0  0  0  0  0
   22.6760   -2.2680    7.4430 C   0  0  2  0  0  0  0  0  0  0  0  0
   16.3190   -1.8600    3.6360 C   0  0  0  0  0  0  0  0  0  0  0  0
   23.6490   -1.0140    5.7800 C   0  0  0  0  0  0  0  0  0  0  0  0
   28.7380   -1.9710    4.3910 C   0  0  0  0  0  0  0  0  0  0  0  0
   24.0230   -1.7140   10.7340 C   0  0  0  0  0  0  0  0  0  0  0  0
   25.2420   -2.1970    9.9350 C   0  0  0  0  0  0  0  0  0  0  0  0
   28.4560   -0.7210    5.2080 C   0  0  0  0  0  0  0  0  0  0  0  0
   26.8530    1.2020    4.5480 C   0  0  0  0  0  0  0  0  0  0  0  0
   22.1660   -3.1210    9.7610 C   0  0  0  0  0  0  0  0  0  0  0  0
   24.1630   -3.9800    8.4600 C   0  0  0  0  0  0  0  0  0  0  0  0
   28.1780   -1.6360    3.0230 C   0  0  0  0  0  0  0  0  0  0  0  0
   26.4930    0.1940    2.3920 C   0  0  0  0  0  0  0  0  0  0  0  0
   23.1500   -2.9490   10.9350 C   0  0  1  0  0  0  0  0  0  0  0  0
   25.0260   -3.6920    9.7070 C   0  0  2  0  0  0  0  0  0  0  0  0
   27.0240    1.4400    3.0620 C   0  0  2  0  0  0  0  0  0  0  0  0
   27.0550   -0.3110    4.7420 C   0  0  2  0  0  0  0  0  0  0  0  0
   15.0180    1.6290    4.0520 C   0  0  0  0  0  0  0  0  0  0  0  0
   26.0180   -0.8950    5.6630 C   0  0  0  0  0  0  0  0  0  0  0  0
   17.3100    1.5510    5.9610 C   0  0  1  0  0  0  0  0  0  0  0  0
   22.4740   -0.5720    5.2950 N   0  0  0  0  0  0  0  0  0  0  0  0
   17.3750   -1.9000    4.4780 N   0  0  0  0  0  0  0  0  0  0  0  0
   23.7900   -1.8660    6.8030 N   0  0  0  0  0  0  0  0  0  0  0  0
   22.9090   -3.2000    8.4990 N   0  0  0  0  0  0  0  0  0  0  0  0
   15.9900   -3.0080    2.9050 N   0  0  0  0  0  0  0  0  0  0  0  0
   24.1740   -4.0530   10.8980 N   0  0  0  0  0  0  0  0  0  0  0  0
   26.8710   -0.9350    3.3360 N   0  0  0  0  0  0  0  0  0  0  0  0
   24.7490   -0.5480    5.0850 O   0  0  0  0  0  0  0  0  0  0  0  0
   20.1040    0.1980    4.3550 F   0  0  0  0  0  0  0  0  0  0  0  0
   28.3690    1.5430    2.8120 F   0  0  0  0  0  0  0  0  0  0  0  0
   16.2100    2.0750    6.5530 F   0  0  0  0  0  0  0  0  0  0  0  0
   18.1420    1.2430    6.9970 F   0  0  0  0  0  0  0  0  0  0  0  0
   17.9080    2.5270    5.2530 F   0  0  0  0  0  0  0  0  0  0  0  0
   17.4770   -2.3260    7.7980 Cl  0  0  0  0  0  0  0  0  0  0  0  0
  3  1  1  0
  5  2  1  0
  6  5  1  0
  7  3  1  0
  8  7  1  0
  8  4  1  0
  4  9  1  6
  9  1  1  0
 10  6  1  0
 10  4  1  0
 11  3  1  0
 12  2  1  0
 16 15  1  0
 17 14  1  0
 21 14  1  0
 23 19  1  6
 23 15  1  0
 24 20  1  6
 24 16  1  0
 25 22  1  0
 25 18  1  0
 26 18  1  0
 26 17  1  0
 27  5  1  0
 26 28  1  1
 29  6  1  0
  7 30  1  6
 30 13  1  0
 31 12  1  0
 10 31  1  6
 32 13  1  0
 32 11  1  0
 33 20  1  0
 33 19  1  0
 11 33  1  6
 34 12  1  0
 35 24  1  0
 35 23  1  0
 36 26  1  0
 36 22  1  0
 36 21  1  0
 37 28  1  0
 37 13  1  0
  8 38  1  1
 25 39  1  1
 29 40  1  1
 41 29  1  0
 42 29  1  0
 43  9  1  0
M  END
$$$$

     RDKit          3D

 25 26  0  0  0  0  0  0  0  0999 V2000
   23.5850   -3.4550   10.0630 C   0  0  1  0  0  0  0  0  0  0  0  0
   25.4470   -5.1590   12.3200 C   0  0  0  0  0  0  0  0  0  0  0  0
   22.9010   -3.6080    8.7360 C   0  0  0  0  0  0  0  0  0  0  0  0
   23.2780   -2.5220    7.7640 C   0  0  0  0  0  0  0  0  0  0  0  0
   15.5700   -1.6890    9.5800 Cl  0  0  0  0  0  0  0  0  0  0  0  0
   17.1670   -1.0160    9.6890 C   0  0  0  0  0  0  0  0  0  0  0  0
   17.6230   -0.2310    8.6250 C   0  0  0  0  0  0  0  0  0  0  0  0
   16.5690    0.0120    7.2860 Cl  0  0  0  0  0  0  0  0  0  0  0  0
   18.8760    0.3360    8.6200 C   0  0  0  0  0  0  0  0  0  0  0  0
   19.6780    0.1460    9.7120 C   0  0  0  0  0  0  0  0  0  0  0  0
   20.9900    0.7030    9.7820 N   0  0  0  0  0  0  0  0  0  0  0  0
   21.7460    0.9860    8.5660 C   0  0  0  0  0  0  0  0  0  0  0  0
   22.0280   -0.2790    7.7860 C   0  0  0  0  0  0  0  0  0  0  0  0
   22.9480   -1.2580    8.3610 N   0  0  0  0  0  0  0  0  0  0  0  0
   23.6480   -1.0470    9.6180 C   0  0  0  0  0  0  0  0  0  0  0  0
   23.3750   -2.0920   10.6280 C   0  0  0  0  0  0  0  0  0  0  0  0
   23.0900   -4.3400   11.0260 N   0  0  0  0  0  0  0  0  0  0  0  0
   24.0160   -5.6630   11.3730 S   0  0  2  0  0  0  0  0  0  0  0  0
   23.2270   -6.5920   12.1600 O   0  0  0  0  0  0  0  0  0  0  0  0
   25.1430   -4.1980   13.4610 C   0  0  0  0  0  0  0  0  0  0  0  0
   24.4440   -6.3780   10.2060 O   0  0  0  0  0  0  0  0  0  0  0  0
   21.4670   -0.5070    6.6990 O   0  0  0  0  0  0  0  0  0  0  0  0
   19.2330   -0.6410   10.7890 C   0  0  0  0  0  0  0  0  0  0  0  0
   20.0980   -0.8260   11.8660 O   0  0  0  0  0  0  0  0  0  0  0  0
   17.9700   -1.2180   10.7810 C   0  0  0  0  0  0  0  0  0  0  0  0
  3  1  1  0
  4  3  1  0
  6  5  1  0
  7  6  1  0
  8  7  1  0
  9  7  1  0
 10  9  1  0
 11 10  1  0
 12 11  1  0
 13 12  1  0
 14 13  1  0
 14  4  1  0
 15 14  1  0
 16 15  1  0
 16  1  1  0
  1 17  1  1
 18 17  1  0
 18  2  1  0
 18 19  1  1
 20  2  1  0
 21 18  1  0
 22 13  1  0
 23 10  1  0
 24 23  1  0
 25 23  1  0
 25  6  1  0
M  END
$$$$

     RDKit          3D

 46 52  0  0  0  0  0  0  0  0999 V2000
   22.7890   -2.7850    7.5840 C   0  0  0  0  0  0  0  0  0  0  0  0
   21.4970   -2.5820    6.9860 C   0  0  0  0  0  0  0  0  0  0  0  0
   21.3640   -1.6710    5.9200 C   0  0  0  0  0  0  0  0  0  0  0  0
   22.5020   -1.0130    5.5050 N   0  0  0  0  0  0  0  0  0  0  0  0
   23.8350   -2.0990    7.1130 N   0  0  0  0  0  0  0  0  0  0  0  0
   27.2450    0.8240    4.8920 C   0  0  0  0  0  0  0  0  0  0  0  0
   27.1450    0.9670    3.3900 C   0  0  1  0  0  0  0  0  0  0  0  0
   28.3690    1.1140    2.8490 F   0  0  0  0  0  0  0  0  0  0  0  0
   26.5160   -0.2920    2.8480 C   0  0  0  0  0  0  0  0  0  0  0  0
   26.9460   -1.2930    3.7710 N   0  0  0  0  0  0  0  0  0  0  0  0
   28.1150   -1.9820    3.2660 C   0  0  0  0  0  0  0  0  0  0  0  0
   28.9610   -2.3090    4.5110 C   0  0  0  0  0  0  0  0  0  0  0  0
   28.5730   -1.1970    5.5240 C   0  0  0  0  0  0  0  0  0  0  0  0
   27.2400   -0.7130    5.0190 C   0  0  1  0  0  0  0  0  0  0  0  0
   26.1120   -1.1450    6.0610 C   0  0  0  0  0  0  0  0  0  0  0  0
   24.8860   -0.5340    5.6210 O   0  0  0  0  0  0  0  0  0  0  0  0
   23.7150   -1.2210    6.0920 C   0  0  0  0  0  0  0  0  0  0  0  0
   20.1460   -1.4270    5.2990 C   0  0  2  0  0  0  0  0  0  0  0  0
   20.0790   -0.3620    4.4770 F   0  0  0  0  0  0  0  0  0  0  0  0
   23.0550   -3.6900    8.6980 N   0  0  0  0  0  0  0  0  0  0  0  0
   22.0470   -3.9950    9.6470 C   0  0  0  0  0  0  0  0  0  0  0  0
   22.4840   -4.0230   11.1080 C   0  0  0  0  0  0  0  0  0  0  0  0
   24.4740   -3.9930    9.0230 C   0  0  0  0  0  0  0  0  0  0  0  0
   24.7100   -4.8470   10.2830 C   0  0  0  0  0  0  0  0  0  0  0  0
   23.8130   -4.5740   11.3560 N   0  0  0  0  0  0  0  0  0  0  0  0
   24.1480   -4.8080   12.7380 C   0  0  0  0  0  0  0  0  0  0  0  0
   23.3270   -4.5470   13.5620 O   0  0  0  0  0  0  0  0  0  0  0  0
   25.4980   -5.3650   13.1690 C   0  0  0  0  0  0  0  0  0  0  0  0
   25.3490   -6.7790   13.7540 C   0  0  0  0  0  0  0  0  0  0  0  0
   24.2920   -7.4350   13.0430 O   0  0  0  0  0  0  0  0  0  0  0  0
   20.2170   -3.2050    7.3030 C   0  0  0  0  0  0  0  0  0  0  0  0
   19.1730   -3.2250    6.3890 N   0  0  0  0  0  0  0  0  0  0  0  0
   18.9750   -2.0870    5.6780 C   0  0  2  0  0  0  0  0  0  0  0  0
   17.7860   -1.8250    4.7560 C   0  0  1  0  0  0  0  0  0  0  0  0
   17.0600   -0.5890    4.8250 C   0  0  0  0  0  0  0  0  0  0  0  0
   17.4700   -2.7600    3.7850 C   0  0  0  0  0  0  0  0  0  0  0  0
   16.4430   -2.5750    2.8690 C   0  0  0  0  0  0  0  0  0  0  0  0
   15.7170   -1.3870    2.9430 C   0  0  0  0  0  0  0  0  0  0  0  0
   16.0320   -0.4020    3.9220 C   0  0  0  0  0  0  0  0  0  0  0  0
   15.2330    0.7540    3.8810 C   0  0  0  0  0  0  0  0  0  0  0  0
   15.4620    1.7690    4.8040 C   0  0  0  0  0  0  0  0  0  0  0  0
   16.4640    1.6370    5.7320 C   0  0  0  0  0  0  0  0  0  0  0  0
   16.7420    2.6040    6.6550 F   0  0  0  0  0  0  0  0  0  0  0  0
   17.2700    0.4650    5.7660 C   0  0  0  0  0  0  0  0  0  0  0  0
   18.3260    0.4550    6.8550 C   0  0  0  0  0  0  0  0  0  0  0  0
   19.1470    0.4640    7.7020 C   0  0  0  0  0  0  0  0  0  0  0  0
  2  1  1  0
  3  2  1  0
  4  3  1  0
  5  1  1  0
  7  6  1  0
  7  8  1  6
  9  7  1  0
 10  9  1  0
 11 10  1  0
 12 11  1  0
 13 12  1  0
 14 10  1  0
 14  6  1  0
 14 13  1  0
 14 15  1  1
 16 15  1  0
 17 16  1  0
 17  5  1  0
 17  4  1  0
 18  3  1  0
 18 19  1  1
 20  1  1  0
 21 20  1  0
 22 21  1  0
 23 20  1  0
 24 23  1  0
 25 24  1  0
 25 22  1  0
 26 25  1  0
 27 26  1  0
 28 26  1  0
 29 28  1  0
 30 29  1  0
 31  2  1  0
 32 31  1  0
 33 18  1  0
 33 32  1  6
 34 33  1  0
 35 34  1  0
 34 36  1  6
 37 36  1  0
 38 37  1  0
 39 38  1  0
 39 35  1  0
 40 39  1  0
 41 40  1  0
 42 41  1  0
 43 42  1  0
 44 35  1  0
 44 42  1  0
 45 44  1  0
 46 45  1  0
M  END
$$$$

     RDKit          3D

 13 14  0  0  0  0  0  0  0  0999 V2000
   23.8410    1.0780    1.5980 C   0  0  0  0  0  0  0  0  0  0  0  0
   23.7840    1.2610    2.9690 C   0  0  0  0  0  0  0  0  0  0  0  0
   24.9140    1.5180    3.7240 C   0  0  0  0  0  0  0  0  0  0  0  0
   25.0610    1.1670    0.9520 C   0  0  0  0  0  0  0  0  0  0  0  0
   26.2110    1.4280    1.6830 C   0  0  0  0  0  0  0  0  0  0  0  0
   26.1350    1.6040    3.0790 C   0  0  0  0  0  0  0  0  0  0  0  0
   28.5400   -0.3220    2.0520 C   0  0  0  0  0  0  0  0  0  0  0  0
   27.2490    1.8500    3.8450 O   0  0  0  0  0  0  0  0  0  0  0  0
   28.5040    2.0040    3.1430 C   0  0  0  0  0  0  0  0  0  0  0  0
   28.5480    1.1980    1.8580 C   0  0  2  0  0  0  0  0  0  0  0  0
   27.4080    1.4750    1.0100 O   0  0  0  0  0  0  0  0  0  0  0  0
   22.2370    1.2050    3.7620 Cl  0  0  0  0  0  0  0  0  0  0  0  0
   29.8930   -0.9300    1.9520 N   0  0  0  0  0  0  0  0  0  0  0  0
  2  1  1  0
  3  2  1  0
  4  1  1  0
  5  4  1  0
  6  5  1  0
  6  3  1  0
  8  6  1  0
  9  8  1  0
 10  9  1  0
 10  7  1  1
 11  5  1  0
 11 10  1  0
 12  2  1  0
 13  7  1  0
M  END
$$$$

     RDKit          3D

 46 52  0  0  0  0  0  0  0  0999 V2000
   16.2600    0.4890    3.6750 C   0  0  0  0  0  0  0  0  0  0  0  0
   15.7010   -0.5200    2.9170 C   0  0  0  0  0  0  0  0  0  0  0  0
   20.7010   -1.7340    6.6480 C   0  0  0  0  0  0  0  0  0  0  0  0
   18.1090   -3.1370    2.8970 C   0  0  0  0  0  0  0  0  0  0  0  0
   21.9020   -1.6120    5.9900 C   0  0  0  0  0  0  0  0  0  0  0  0
   17.6960   -1.8380    3.3120 C   0  0  0  0  0  0  0  0  0  0  0  0
   18.2290   -0.8220    4.0800 C   0  0  2  0  0  0  0  0  0  0  0  0
   19.5020   -1.1140    4.6890 C   0  0  0  0  0  0  0  0  0  0  0  0
   19.5150   -1.4840    6.0150 C   0  0  0  0  0  0  0  0  0  0  0  0
   17.4990    0.3480    4.2640 C   0  0  0  0  0  0  0  0  0  0  0  0
   21.9060   -1.2480    4.6680 C   0  0  0  0  0  0  0  0  0  0  0  0
   16.4480   -1.6680    2.7480 C   0  0  0  0  0  0  0  0  0  0  0  0
   20.6890   -1.0150    4.0170 C   0  0  0  0  0  0  0  0  0  0  0  0
   23.1360   -1.8280    6.5870 C   0  0  0  0  0  0  0  0  0  0  0  0
   24.2060   -1.3390    4.6680 C   0  0  0  0  0  0  0  0  0  0  0  0
   18.1500   -0.9070    7.9200 C   0  0  0  0  0  0  0  0  0  0  0  0
   25.8330   -4.2250   14.9190 C   0  0  0  0  0  0  0  0  0  0  0  0
   18.3150   -1.6160    6.7990 C   0  0  0  0  0  0  0  0  0  0  0  0
   24.5870   -4.6610   14.1950 C   0  0  0  0  0  0  0  0  0  0  0  0
   23.6400   -3.4720   14.0590 C   0  0  1  0  0  0  0  0  0  0  0  0
   26.7100    0.3620    5.1980 C   0  0  0  0  0  0  0  0  0  0  0  0
   27.5690   -1.4030    3.5540 C   0  0  0  0  0  0  0  0  0  0  0  0
   24.2720   -1.9910   10.1120 C   0  0  0  0  0  0  0  0  0  0  0  0
   22.0450   -3.2140    9.9080 C   0  0  0  0  0  0  0  0  0  0  0  0
   27.0600    1.4500    4.1980 C   0  0  0  0  0  0  0  0  0  0  0  0
   27.6660   -0.3210    2.4920 C   0  0  0  0  0  0  0  0  0  0  0  0
   24.4930   -2.3740    8.6570 C   0  0  0  0  0  0  0  0  0  0  0  0
   22.0110   -2.3210    8.7200 C   0  0  0  0  0  0  0  0  0  0  0  0
   23.6810   -3.9510   11.5760 C   0  0  0  0  0  0  0  0  0  0  0  0
   22.6460   -2.1370   12.1000 C   0  0  0  0  0  0  0  0  0  0  0  0
   26.5420   -1.0500    4.6060 C   0  0  2  0  0  0  0  0  0  0  0  0
   23.1660   -2.7530   10.7970 C   0  0  1  0  0  0  0  0  0  0  0  0
   17.9940    1.5000    5.0870 C   0  0  0  0  0  0  0  0  0  0  0  0
   21.0210   -1.5600    0.4090 C   0  0  0  0  0  0  0  0  0  0  0  0
   28.3790    2.0330    2.1840 C   0  0  0  0  0  0  0  0  0  0  0  0
   21.0890   -1.8090    1.9070 C   0  0  0  0  0  0  0  0  0  0  0  0
   17.2040   -3.7510    2.1290 N   0  0  0  0  0  0  0  0  0  0  0  0
   23.0690   -1.1190    4.0190 N   0  0  0  0  0  0  0  0  0  0  0  0
   24.2970   -1.7000    5.9400 N   0  0  0  0  0  0  0  0  0  0  0  0
   16.2200   -2.8350    2.0640 N   0  0  0  0  0  0  0  0  0  0  0  0
   23.2370   -2.1930    7.9360 N   0  0  0  0  0  0  0  0  0  0  0  0
   23.1590   -3.3230   12.7870 N   0  0  0  0  0  0  0  0  0  0  0  0
   28.0020    0.9740    3.1580 N   0  0  0  0  0  0  0  0  0  0  0  0
   23.3240   -2.7880   15.0170 O   0  0  0  0  0  0  0  0  0  0  0  0
   20.6880   -0.6530    2.6710 O   0  0  0  0  0  0  0  0  0  0  0  0
   25.3280   -1.1540    3.8720 O   0  0  0  0  0  0  0  0  0  0  0  0
  2  1  1  0
  5  3  1  0
  6  4  1  0
  7  6  1  0
  7  8  1  1
  9  8  1  0
  9  3  1  0
 10  1  1  0
 10  7  1  0
 11  5  1  0
 12  2  1  0
 12  6  1  0
 13  8  1  0
 13 11  1  0
 14  5  1  0
 18 16  1  0
 18  9  1  0
 19 17  1  0
 20 19  1  0
 25 21  1  0
 26 22  1  0
 27 23  1  0
 28 24  1  0
 31 21  1  0
 31 22  1  0
 32 24  1  6
 32 23  1  0
 32 30  1  0
 32 29  1  0
 33 10  1  0
 36 34  1  0
 37  4  1  0
 38 15  1  0
 38 11  1  0
 39 15  1  0
 39 14  1  0
 40 37  1  0
 40 12  1  0
 41 28  1  0
 41 27  1  0
 41 14  1  0
 42 30  1  0
 42 29  1  0
 42 20  1  0
 43 25  1  0
 43 35  1  0
 43 26  1  0
 20 44  1  1
 45 36  1  0
 45 13  1  0
 31 46  1  6
 46 15  1  0
M  END
$$$$

     RDKit          3D

 41 46  0  0  0  0  0  0  0  0999 V2000
   22.6890   -1.2970   10.9220 C   0  0  0  0  0  0  0  0  0  0  0  0
   23.7070   -2.2500    7.4210 N   0  0  0  0  0  0  0  0  0  0  0  0
   23.9750   -4.5040   10.8550 C   0  0  0  0  0  0  0  0  0  0  0  0
   23.9440   -3.9050    9.4480 C   0  0  0  0  0  0  0  0  0  0  0  0
   21.5090   -3.2760   10.0610 C   0  0  0  0  0  0  0  0  0  0  0  0
   22.1740   -2.6900   11.3280 C   0  0  1  0  0  0  0  0  0  0  0  0
   22.5520   -1.2580    5.5700 N   0  0  0  0  0  0  0  0  0  0  0  0
   20.1410   -1.4480    5.1740 C   0  0  0  0  0  0  0  0  0  0  0  0
   19.1540   -3.3760    6.3650 C   0  0  0  0  0  0  0  0  0  0  0  0
   28.0730    0.1150    3.6070 C   0  0  0  0  0  0  0  0  0  0  0  0
   19.9910   -3.1250    7.6250 C   0  0  0  0  0  0  0  0  0  0  0  0
   22.5160   -2.7500    7.8440 C   0  0  0  0  0  0  0  0  0  0  0  0
   21.3200   -2.5090    7.1460 C   0  0  0  0  0  0  0  0  0  0  0  0
   23.6720   -1.5390    6.2770 C   0  0  0  0  0  0  0  0  0  0  0  0
   26.0580   -1.3550    6.3350 C   0  0  0  0  0  0  0  0  0  0  0  0
   27.1660   -0.4360    5.7690 C   0  0  1  0  0  0  0  0  0  0  0  0
   21.3910   -1.7400    5.9830 C   0  0  0  0  0  0  0  0  0  0  0  0
   18.9620   -1.9880    5.8530 N   0  0  0  0  0  0  0  0  0  0  0  0
   24.8390   -1.0320    5.7690 O   0  0  0  0  0  0  0  0  0  0  0  0
   22.5120   -3.5810    9.0380 N   0  0  0  0  0  0  0  0  0  0  0  0
   23.3430   -3.5120   11.8300 N   0  0  0  0  0  0  0  0  0  0  0  0
   27.5900   -1.0850    4.4360 N   0  0  0  0  0  0  0  0  0  0  0  0
   27.0110    1.1950    3.9380 C   0  0  0  0  0  0  0  0  0  0  0  0
   26.6270    0.9460    5.3880 C   0  0  0  0  0  0  0  0  0  0  0  0
   28.7650   -2.0580    4.6780 C   0  0  0  0  0  0  0  0  0  0  0  0
   17.7590   -1.7730    5.0440 C   0  0  0  0  0  0  0  0  0  0  0  0
   17.2280   -2.7670    4.2080 C   0  0  0  0  0  0  0  0  0  0  0  0
   16.0600   -2.4930    3.4470 C   0  0  0  0  0  0  0  0  0  0  0  0
   15.4050   -1.2480    3.5000 C   0  0  0  0  0  0  0  0  0  0  0  0
   15.9440   -0.2500    4.3500 C   0  0  0  0  0  0  0  0  0  0  0  0
   17.1180   -0.5190    5.1060 C   0  0  0  0  0  0  0  0  0  0  0  0
   15.3350    1.0170    4.4440 C   0  0  0  0  0  0  0  0  0  0  0  0
   15.8790    2.0230    5.2850 C   0  0  0  0  0  0  0  0  0  0  0  0
   17.0200    1.7260    6.0240 C   0  0  0  0  0  0  0  0  0  0  0  0
   17.6500    0.4650    5.9360 C   0  0  0  0  0  0  0  0  0  0  0  0
   23.7430   -3.4010   13.1500 C   0  0  2  0  0  0  0  0  0  0  0  0
   23.4140   -2.3950   13.8270 O   0  0  0  0  0  0  0  0  0  0  0  0
   24.7480   -4.4860   13.6770 C   0  0  0  0  0  0  0  0  0  0  0  0
   26.0210   -3.8920   14.3720 C   0  0  0  0  0  0  0  0  0  0  0  0
   21.5150   -0.3390   10.8210 C   0  0  0  0  0  0  0  0  0  0  0  0
   20.6760    0.4420   10.6310 N   0  0  0  0  0  0  0  0  0  0  0  0
  4  3  1  0
  6  5  1  0
  6  1  1  6
 11  9  1  0
 12  2  1  0
 13 11  1  0
 13 12  1  0
 14  7  1  0
 14  2  1  0
 16 15  1  6
 17  8  1  0
 17 13  1  0
 17  7  1  0
 18  8  1  0
 18  9  1  0
 19 15  1  0
 19 14  1  0
 20  5  1  0
 20 12  1  0
 20  4  1  0
 21  3  1  0
 21  6  1  0
 22 16  1  0
 22 10  1  0
 23 10  1  0
 24 23  1  0
 24 16  1  0
 25 22  1  0
 26 18  1  0
 27 26  1  0
 28 27  1  0
 29 28  1  0
 30 29  1  0
 31 30  1  0
 31 26  1  0
 32 30  1  0
 33 32  1  0
 34 33  1  0
 35 31  1  0
 35 34  1  0
 36 21  1  0
 36 37  1  6
 38 36  1  0
 39 38  1  0
 40  1  1  0
 41 40  1  0
M  END
$$$$

     RDKit          3D

 46 52  0  0  0  0  0  0  0  0999 V2000
   16.3120    0.7640    3.3290 C   0  0  0  0  0  0  0  0  0  0  0  0
   15.6330   -0.2730    2.7210 C   0  0  0  0  0  0  0  0  0  0  0  0
   20.5690   -1.6370    6.5510 C   0  0  0  0  0  0  0  0  0  0  0  0
   17.7390   -3.1040    3.1740 C   0  0  0  0  0  0  0  0  0  0  0  0
   21.7850   -1.5340    5.9140 C   0  0  0  0  0  0  0  0  0  0  0  0
   17.4740   -1.7160    3.3590 C   0  0  0  0  0  0  0  0  0  0  0  0
   18.1290   -0.6550    3.9610 C   0  0  0  0  0  0  0  0  0  0  0  0
   19.3780   -0.9550    4.6080 C   0  0  0  0  0  0  0  0  0  0  0  0
   19.3760   -1.3650    5.9200 C   0  0  0  0  0  0  0  0  0  0  0  0
   17.5340    0.5970    3.9520 C   0  0  0  0  0  0  0  0  0  0  0  0
   21.7810   -1.1060    4.6000 C   0  0  0  0  0  0  0  0  0  0  0  0
   16.2450   -1.5040    2.7540 C   0  0  0  0  0  0  0  0  0  0  0  0
   20.5800   -0.8310    3.9570 C   0  0  0  0  0  0  0  0  0  0  0  0
   23.0140   -1.7850    6.5340 C   0  0  0  0  0  0  0  0  0  0  0  0
   24.0660   -1.2100    4.6050 C   0  0  0  0  0  0  0  0  0  0  0  0
   18.0390   -0.8340    7.8130 C   0  0  0  0  0  0  0  0  0  0  0  0
   25.9190   -4.2520   14.4400 C   0  0  0  0  0  0  0  0  0  0  0  0
   18.1470   -1.5110    6.6690 C   0  0  0  0  0  0  0  0  0  0  0  0
   24.4590   -4.5900   14.3730 C   0  0  0  0  0  0  0  0  0  0  0  0
   23.6960   -3.3310   14.0740 C   0  0  0  0  0  0  0  0  0  0  0  0
   26.6110    0.6610    4.7980 C   0  0  0  0  0  0  0  0  0  0  0  0
   27.3380   -1.1360    3.1020 C   0  0  0  0  0  0  0  0  0  0  0  0
   24.2200   -1.9000    9.9900 C   0  0  0  0  0  0  0  0  0  0  0  0
   21.8280   -2.7940   10.1030 C   0  0  0  0  0  0  0  0  0  0  0  0
   26.9770    1.7020    3.7600 C   0  0  0  0  0  0  0  0  0  0  0  0
   27.8700   -0.0300    2.2060 C   0  0  0  0  0  0  0  0  0  0  0  0
   24.3670   -2.4680    8.5980 C   0  0  0  0  0  0  0  0  0  0  0  0
   21.8960   -2.5650    8.6140 C   0  0  0  0  0  0  0  0  0  0  0  0
   22.7310   -1.9830   12.1750 C   0  0  0  0  0  0  0  0  0  0  0  0
   23.6670   -3.8100   11.5120 C   0  0  0  0  0  0  0  0  0  0  0  0
   26.4020   -0.7550    4.2430 C   0  0  2  0  0  0  0  0  0  0  0  0
   23.1270   -2.5660   10.8100 C   0  0  2  0  0  0  0  0  0  0  0  0
   18.1910    1.7870    4.5910 C   0  0  0  0  0  0  0  0  0  0  0  0
   21.3820   -0.9320    0.4840 C   0  0  0  0  0  0  0  0  0  0  0  0
   28.6080    2.3010    2.0090 C   0  0  0  0  0  0  0  0  0  0  0  0
   20.8660   -1.4870    1.7890 C   0  0  0  0  0  0  0  0  0  0  0  0
   16.7530   -3.7140    2.5090 N   0  0  0  0  0  0  0  0  0  0  0  0
   22.9330   -0.9560    3.9510 N   0  0  0  0  0  0  0  0  0  0  0  0
   24.1750   -1.6100    5.8860 N   0  0  0  0  0  0  0  0  0  0  0  0
   15.8710   -2.7280    2.2700 N   0  0  0  0  0  0  0  0  0  0  0  0
   23.1140   -2.2350    7.8970 N   0  0  0  0  0  0  0  0  0  0  0  0
   23.2850   -3.1910   12.7740 N   0  0  0  0  0  0  0  0  0  0  0  0
   28.1120    1.2520    2.9310 N   0  0  0  0  0  0  0  0  0  0  0  0
   23.4380   -2.5260   14.9680 O   0  0  0  0  0  0  0  0  0  0  0  0
   20.5310   -0.3940    2.6450 O   0  0  0  0  0  0  0  0  0  0  0  0
   25.0920   -0.9790    3.7110 O   0  0  0  0  0  0  0  0  0  0  0  0
  2  1  1  0
  5  3  1  0
  6  4  1  0
  7  6  1  0
  8  7  1  0
  9  8  1  0
  9  3  1  0
 10  1  1  0
 10  7  1  0
 11  5  1  0
 12  2  1  0
 12  6  1  0
 13 11  1  0
 13  8  1  0
 14  5  1  0
 18 16  1  0
 18  9  1  0
 19 17  1  0
 20 19  1  0
 25 21  1  0
 26 22  1  0
 27 23  1  0
 28 24  1  0
 31 21  1  0
 31 22  1  0
 32 24  1  6
 32 23  1  0
 32 30  1  0
 32 29  1  0
 33 10  1  0
 36 34  1  0
 37  4  1  0
 38 11  1  0
 38 15  1  0
 39 15  1  0
 39 14  1  0
 40 12  1  0
 40 37  1  0
 41 28  1  0
 41 27  1  0
 41 14  1  0
 42 30  1  0
 42 29  1  0
 42 20  1  0
 43 25  1  0
 43 35  1  0
 43 26  1  0
 44 20  1  0
 45 36  1  0
 45 13  1  0
 31 46  1  6
 46 15  1  0
M  END
$$$$

     RDKit          3D

 43 49  0  0  0  0  0  0  0  0999 V2000
   20.2080   -2.2120    7.5910 C   0  0  0  0  0  0  0  0  0  0  0  0
   15.5820   -0.7310    3.3790 C   0  0  0  0  0  0  0  0  0  0  0  0
   21.4280   -1.8430    6.9840 C   0  0  0  0  0  0  0  0  0  0  0  0
   18.9440   -1.0560    5.8960 C   0  0  2  0  0  0  0  0  0  0  0  0
   15.8830    0.3740    4.1710 C   0  0  0  0  0  0  0  0  0  0  0  0
   16.9640    0.3380    5.0660 C   0  0  0  0  0  0  0  0  0  0  0  0
   21.3980   -0.9950    5.8610 C   0  0  2  0  0  0  0  0  0  0  0  0
   20.1560   -0.6470    5.3300 C   0  0  2  0  0  0  0  0  0  0  0  0
   18.9860   -1.8240    7.0470 C   0  0  0  0  0  0  0  0  0  0  0  0
   17.7090   -0.8260    5.1360 C   0  0  1  0  0  0  0  0  0  0  0  0
   22.7180   -2.2430    7.3920 C   0  0  2  0  0  0  0  0  0  0  0  0
   16.3670   -1.8630    3.5210 C   0  0  0  0  0  0  0  0  0  0  0  0
   23.7040   -1.0000    5.7280 C   0  0  0  0  0  0  0  0  0  0  0  0
   28.7690   -1.9030    4.2200 C   0  0  0  0  0  0  0  0  0  0  0  0
   24.0940   -1.6660   10.6780 C   0  0  0  0  0  0  0  0  0  0  0  0
   25.3000   -2.1940    9.8920 C   0  0  0  0  0  0  0  0  0  0  0  0
   28.5170   -0.6470    5.0350 C   0  0  0  0  0  0  0  0  0  0  0  0
   26.8830    1.2530    4.4410 C   0  0  0  0  0  0  0  0  0  0  0  0
   22.2010   -3.0350    9.7300 C   0  0  0  0  0  0  0  0  0  0  0  0
   24.1780   -3.9700    8.4380 C   0  0  0  0  0  0  0  0  0  0  0  0
   28.1570   -1.5610    2.8760 C   0  0  0  0  0  0  0  0  0  0  0  0
   26.4680    0.2500    2.2970 C   0  0  0  0  0  0  0  0  0  0  0  0
   23.1870   -2.8630   10.9040 C   0  0  1  0  0  0  0  0  0  0  0  0
   25.0410   -3.6860    9.6840 C   0  0  2  0  0  0  0  0  0  0  0  0
   27.0340    1.5010    2.9460 C   0  0  2  0  0  0  0  0  0  0  0  0
   27.0870   -0.2620    4.6310 C   0  0  2  0  0  0  0  0  0  0  0  0
   15.0460    1.6040    3.9910 C   0  0  0  0  0  0  0  0  0  0  0  0
   26.0700   -0.8350    5.5860 C   0  0  0  0  0  0  0  0  0  0  0  0
   17.3040    1.5120    5.9200 C   0  0  1  0  0  0  0  0  0  0  0  0
   22.5220   -0.5640    5.2530 N   0  0  0  0  0  0  0  0  0  0  0  0
   17.4060   -1.9170    4.3850 N   0  0  0  0  0  0  0  0  0  0  0  0
   23.8430   -1.8410    6.7580 N   0  0  0  0  0  0  0  0  0  0  0  0
   22.9390   -3.1600    8.4640 N   0  0  0  0  0  0  0  0  0  0  0  0
   16.0770   -2.9920    2.7700 N   0  0  0  0  0  0  0  0  0  0  0  0
   24.1690   -4.0030   10.8660 N   0  0  0  0  0  0  0  0  0  0  0  0
   26.8450   -0.8850    3.2350 N   0  0  0  0  0  0  0  0  0  0  0  0
   24.7940   -0.5060    5.0290 O   0  0  0  0  0  0  0  0  0  0  0  0
   20.1400    0.1960    4.2700 F   0  0  0  0  0  0  0  0  0  0  0  0
   28.3620    1.6110    2.6160 F   0  0  0  0  0  0  0  0  0  0  0  0
   16.2070    2.0030    6.5370 F   0  0  0  0  0  0  0  0  0  0  0  0
   18.1360    1.2210    6.9520 F   0  0  0  0  0  0  0  0  0  0  0  0
   17.8720    2.5380    5.2580 F   0  0  0  0  0  0  0  0  0  0  0  0
   17.5160   -2.3070    7.7800 Cl  0  0  0  0  0  0  0  0  0  0  0  0
  3  1  1  0
  5  2  1  0
  6  5  1  0
  7  3  1  0
  8  7  1  0
  8  4  1  0
  4  9  1  6
  9  1  1  0
 10  6  1  0
 10  4  1  0
 11  3  1  0
 12  2  1  0
 16 15  1  0
 17 14  1  0
 21 14  1  0
 23 19  1  6
 23 15  1  0
 24 20  1  6
 24 16  1  0
 25 22  1  0
 25 18  1  0
 26 18  1  0
 26 17  1  0
 27  5  1  0
 26 28  1  1
 29  6  1  0
  7 30  1  6
 30 13  1  0
 31 12  1  0
 10 31  1  6
 32 13  1  0
 32 11  1  0
 33 20  1  0
 33 19  1  0
 11 33  1  6
 34 12  1  0
 35 24  1  0
 35 23  1  0
 36 26  1  0
 36 22  1  0
 36 21  1  0
 37 28  1  0
 37 13  1  0
  8 38  1  1
 25 39  1  1
 29 40  1  1
 41 29  1  0
 42 29  1  0
 43  9  1  0
M  END
$$$$

     RDKit          3D

 46 52  0  0  0  0  0  0  0  0999 V2000
   16.3930    0.8870    3.3730 C   0  0  0  0  0  0  0  0  0  0  0  0
   15.7050   -0.1120    2.7200 C   0  0  0  0  0  0  0  0  0  0  0  0
   20.7240   -1.6340    6.4550 C   0  0  0  0  0  0  0  0  0  0  0  0
   17.7960   -2.9740    3.0050 C   0  0  0  0  0  0  0  0  0  0  0  0
   21.9240   -1.4940    5.7980 C   0  0  1  0  0  0  0  0  0  0  0  0
   17.5460   -1.6030    3.2670 C   0  0  0  0  0  0  0  0  0  0  0  0
   18.2220   -0.5910    3.9220 C   0  0  0  0  0  0  0  0  0  0  0  0
   19.4920   -0.9310    4.5470 C   0  0  0  0  0  0  0  0  0  0  0  0
   19.5290   -1.3650    5.8440 C   0  0  0  0  0  0  0  0  0  0  0  0
   17.6210    0.6610    3.9730 C   0  0  0  0  0  0  0  0  0  0  0  0
   21.9030   -1.0360    4.4950 C   0  0  0  0  0  0  0  0  0  0  0  0
   16.3180   -1.3430    2.6900 C   0  0  0  0  0  0  0  0  0  0  0  0
   20.6830   -0.7760    3.8890 C   0  0  0  0  0  0  0  0  0  0  0  0
   23.1490   -1.7330    6.4180 C   0  0  0  0  0  0  0  0  0  0  0  0
   24.1790   -1.0970    4.4700 C   0  0  0  0  0  0  0  0  0  0  0  0
   18.0430   -0.6000    7.4840 C   0  0  0  0  0  0  0  0  0  0  0  0
   25.9610   -4.2030   14.5210 C   0  0  0  0  0  0  0  0  0  0  0  0
   18.3510   -1.5590    6.6230 C   0  0  0  0  0  0  0  0  0  0  0  0
   24.5380   -4.5720   14.1690 C   0  0  0  0  0  0  0  0  0  0  0  0
   23.7090   -3.3360   13.9710 C   0  0  1  0  0  0  0  0  0  0  0  0
   26.7920    0.6990    4.8240 C   0  0  0  0  0  0  0  0  0  0  0  0
   27.5480   -1.1570    3.2600 C   0  0  0  0  0  0  0  0  0  0  0  0
   24.2490   -1.8280    9.9360 C   0  0  0  0  0  0  0  0  0  0  0  0
   21.8650   -2.7420    9.9880 C   0  0  0  0  0  0  0  0  0  0  0  0
   27.1310    1.6980    3.7200 C   0  0  0  0  0  0  0  0  0  0  0  0
   27.9230   -0.1350    2.2030 C   0  0  0  0  0  0  0  0  0  0  0  0
   24.4820   -2.4000    8.5430 C   0  0  0  0  0  0  0  0  0  0  0  0
   22.0150   -2.5600    8.4920 C   0  0  0  0  0  0  0  0  0  0  0  0
   23.6380   -3.7890   11.4300 C   0  0  0  0  0  0  0  0  0  0  0  0
   22.7290   -1.9480   12.0820 C   0  0  0  0  0  0  0  0  0  0  0  0
   26.5200   -0.7050    4.2770 C   0  0  2  0  0  0  0  0  0  0  0  0
   23.1430   -2.5280   10.7270 C   0  0  1  0  0  0  0  0  0  0  0  0
   18.2620    1.8230    4.6580 C   0  0  0  0  0  0  0  0  0  0  0  0
   20.8010   -1.0530    0.3110 C   0  0  0  0  0  0  0  0  0  0  0  0
   28.8580    2.1590    1.9540 C   0  0  0  0  0  0  0  0  0  0  0  0
   21.2830   -1.1980    1.7280 C   0  0  0  0  0  0  0  0  0  0  0  0
   16.8050   -3.5380    2.3150 N   0  0  0  0  0  0  0  0  0  0  0  0
   23.0400   -0.8490    3.8260 N   0  0  0  0  0  0  0  0  0  0  0  0
   24.2810   -1.5160    5.7450 N   0  0  0  0  0  0  0  0  0  0  0  0
   15.9350   -2.5330    2.1440 N   0  0  0  0  0  0  0  0  0  0  0  0
   23.2400   -2.1970    7.7840 N   0  0  0  0  0  0  0  0  0  0  0  0
   23.2600   -3.1610   12.6900 N   0  0  0  0  0  0  0  0  0  0  0  0
   28.2070    1.1720    2.8460 N   0  0  0  0  0  0  0  0  0  0  0  0
   23.4210   -2.6120   14.9170 O   0  0  0  0  0  0  0  0  0  0  0  0
   20.5740   -0.3260    2.5950 O   0  0  0  0  0  0  0  0  0  0  0  0
   25.2450   -0.8390    3.6200 O   0  0  0  0  0  0  0  0  0  0  0  0
  2  1  1  0
  5  3  1  1
  6  4  1  0
  7  6  1  0
  8  7  1  0
  9  8  1  0
  9  3  1  0
 10  7  1  0
 10  1  1  0
 11  5  1  0
 12  2  1  0
 12  6  1  0
 13  8  1  0
 13 11  1  0
 14  5  1  0
 18 16  1  0
 18  9  1  0
 19 17  1  0
 20 19  1  0
 25 21  1  0
 26 22  1  0
 27 23  1  0
 28 24  1  0
 31 21  1  0
 31 22  1  0
 32 24  1  6
 32 23  1  0
 32 30  1  0
 32 29  1  0
 33 10  1  0
 36 34  1  0
 37  4  1  0
 38 15  1  0
 38 11  1  0
 39 15  1  0
 39 14  1  0
 40 12  1  0
 40 37  1  0
 41 28  1  0
 41 27  1  0
 41 14  1  0
 42 30  1  0
 42 29  1  0
 42 20  1  0
 43 25  1  0
 43 35  1  0
 43 26  1  0
 20 44  1  1
 45 36  1  0
 45 13  1  0
 31 46  1  6
 46 15  1  0
M  END
$$$$

     RDKit          3D

 24 25  0  0  0  0  0  0  0  0999 V2000
   17.6250   -0.7790    9.7550 C   0  0  0  0  0  0  0  0  0  0  0  0
   18.3280    0.9560    7.6880 C   0  0  0  0  0  0  0  0  0  0  0  0
   23.1370   -3.3010    8.5350 C   0  0  0  0  0  0  0  0  0  0  0  0
   23.1340   -4.2260    9.7010 C   0  0  0  0  0  0  0  0  0  0  0  0
   26.2810   -5.1540   12.9940 C   0  0  0  0  0  0  0  0  0  0  0  0
   24.9990   -6.5390   11.1330 O   0  0  0  0  0  0  0  0  0  0  0  0
   24.7720   -5.7870   12.3510 S   0  0  2  0  0  0  0  0  0  0  0  0
   23.7040   -4.5790   12.0320 N   0  0  0  0  0  0  0  0  0  0  0  0
   24.0260   -3.8580   10.8290 C   0  0  2  0  0  0  0  0  0  0  0  0
   23.9630   -2.4070   11.1680 C   0  0  0  0  0  0  0  0  0  0  0  0
   23.7840   -1.5010   10.0140 C   0  0  0  0  0  0  0  0  0  0  0  0
   22.8810   -1.9410    8.9800 N   0  0  0  0  0  0  0  0  0  0  0  0
   21.8690   -1.0700    8.4820 C   0  0  0  0  0  0  0  0  0  0  0  0
   21.6950    0.3050    9.0440 C   0  0  0  0  0  0  0  0  0  0  0  0
   20.6090    1.0660    8.5350 N   0  0  0  0  0  0  0  0  0  0  0  0
   19.2680    0.5640    8.6290 C   0  0  0  0  0  0  0  0  0  0  0  0
   18.9300   -0.2970    9.6660 C   0  0  0  0  0  0  0  0  0  0  0  0
   16.6940   -0.3820    8.8240 C   0  0  0  0  0  0  0  0  0  0  0  0
   15.0540   -0.9500    8.8990 Cl  0  0  0  0  0  0  0  0  0  0  0  0
   17.0310    0.4730    7.7940 C   0  0  0  0  0  0  0  0  0  0  0  0
   18.7540    2.0380    6.3970 Cl  0  0  0  0  0  0  0  0  0  0  0  0
   21.1150   -1.4640    7.5930 O   0  0  0  0  0  0  0  0  0  0  0  0
   26.2400   -4.3820   14.2780 C   0  0  0  0  0  0  0  0  0  0  0  0
   24.1670   -6.7220   13.2630 O   0  0  0  0  0  0  0  0  0  0  0  0
  4  3  1  0
  7  6  1  6
  7  5  1  0
  8  7  1  0
  9  4  1  0
  9  8  1  1
 10  9  1  0
 11 10  1  0
 12 11  1  0
 12  3  1  0
 13 12  1  0
 14 13  1  0
 15 14  1  0
 16 15  1  0
 16  2  1  0
 17 16  1  0
 17  1  1  0
 18  1  1  0
 19 18  1  0
 20 18  1  0
 20  2  1  0
 21  2  1  0
 22 13  1  0
 23  5  1  0
 24  7  1  0
M  END
$$$$

     RDKit          3D

 36 39  0  0  0  0  0  0  0  0999 V2000
   20.7280   -1.5440    7.9750 C   0  0  0  0  0  0  0  0  0  0  0  0
   22.6690   -2.2030   11.1890 C   0  0  0  0  0  0  0  0  0  0  0  0
   24.0680   -3.3030   12.8580 C   0  0  0  0  0  0  0  0  0  0  0  0
   23.7750   -4.3120   10.5620 C   0  0  0  0  0  0  0  0  0  0  0  0
   24.2110   -3.6870    9.2210 C   0  0  0  0  0  0  0  0  0  0  0  0
   23.9940   -1.8710    5.4440 C   0  0  0  0  0  0  0  0  0  0  0  0
   25.3860   -0.8220    3.7040 C   0  0  0  0  0  0  0  0  0  0  0  0
   27.3470    0.7050    3.1030 C   0  0  0  0  0  0  0  0  0  0  0  0
   18.2780    1.8370    7.1490 F   0  0  0  0  0  0  0  0  0  0  0  0
   17.6860    1.2280    6.0830 C   0  0  0  0  0  0  0  0  0  0  0  0
   16.5510    1.8340    5.5740 C   0  0  0  0  0  0  0  0  0  0  0  0
   15.9250    1.2320    4.4950 C   0  0  0  0  0  0  0  0  0  0  0  0
   16.4520    0.0640    3.9670 C   0  0  0  0  0  0  0  0  0  0  0  0
   17.5920   -0.5360    4.4940 C   0  0  0  0  0  0  0  0  0  0  0  0
   18.2230    0.0270    5.5930 C   0  0  1  0  0  0  0  0  0  0  0  0
   19.4610   -0.5980    6.1470 C   0  0  2  0  0  0  0  0  0  0  0  0
   19.5630   -1.0070    7.4760 C   0  0  0  0  0  0  0  0  0  0  0  0
   21.8810   -1.6740    7.1390 C   0  0  0  0  0  0  0  0  0  0  0  0
   23.1370   -2.2320    7.5400 C   0  0  2  0  0  0  0  0  0  0  0  0
   23.3490   -2.5730    8.8540 N   0  0  0  0  0  0  0  0  0  0  0  0
   23.1700   -1.5760    9.9100 C   0  0  0  0  0  0  0  0  0  0  0  0
   23.5630   -3.2780   11.6130 N   0  0  0  0  0  0  0  0  0  0  0  0
   24.9740   -4.4440   13.2820 C   0  0  0  0  0  0  0  0  0  0  0  0
   26.3270   -3.9550   13.7950 C   0  0  0  0  0  0  0  0  0  0  0  0
   23.8310   -2.4100   13.6670 O   0  0  0  0  0  0  0  0  0  0  0  0
   24.2060   -2.3080    6.7240 N   0  0  0  0  0  0  0  0  0  0  0  0
   25.0250   -1.9410    4.5780 N   0  0  0  0  0  0  0  0  0  0  0  0
   26.9050   -0.7270    3.4700 C   0  0  0  0  0  0  0  0  0  0  0  0
   27.5760    0.9950    1.8020 N   0  0  0  0  0  0  0  0  0  0  0  0
   27.9960    2.3400    1.4220 C   0  0  0  0  0  0  0  0  0  0  0  0
   27.3990   -0.0140    0.7630 C   0  0  0  0  0  0  0  0  0  0  0  0
   27.5010    1.5710    3.9700 O   0  0  0  0  0  0  0  0  0  0  0  0
   22.8550   -1.3510    4.9430 N   0  0  0  0  0  0  0  0  0  0  0  0
   21.7980   -1.2550    5.7940 C   0  0  0  0  0  0  0  0  0  0  0  0
   20.5730   -0.6990    5.3280 C   0  0  0  0  0  0  0  0  0  0  0  0
   18.1970   -0.9080    8.5430 Cl  0  0  0  0  0  0  0  0  0  0  0  0
  5  4  1  0
 10  9  1  0
 11 10  1  0
 12 11  1  0
 13 12  1  0
 14 13  1  0
 15 14  1  6
 15 10  1  0
 16 15  1  0
 17 16  1  0
 17  1  1  0
 18  1  1  0
 19 18  1  0
 19 20  1  1
 20  5  1  0
 21 20  1  0
 21  2  1  0
 22  4  1  0
 22  3  1  0
 22  2  1  0
 23  3  1  0
 24 23  1  0
 25  3  1  0
 26  6  1  0
 26 19  1  0
 27  7  1  0
 27  6  1  0
 28  7  1  0
 28  8  1  0
 29  8  1  0
 30 29  1  0
 31 29  1  0
 32  8  1  0
 33  6  1  0
 34 33  1  0
 34 18  1  0
 35 34  1  0
 16 35  1  1
 36 17  1  0
M  END
$$$$

     RDKit          3D

 34 37  0  0  0  0  0  0  0  0999 V2000
   26.0230   -4.5310   15.1760 C   0  0  0  0  0  0  0  0  0  0  0  0
   25.4950   -4.3220   13.7600 C   0  0  0  0  0  0  0  0  0  0  0  0
   24.4740   -3.1950   13.5370 C   0  0  0  0  0  0  0  0  0  0  0  0
   23.9290   -2.6580   14.4990 O   0  0  0  0  0  0  0  0  0  0  0  0
   24.2550   -2.8200   12.2860 N   0  0  0  0  0  0  0  0  0  0  0  0
   23.4360   -1.7860   11.6550 C   0  0  0  0  0  0  0  0  0  0  0  0
   24.8060   -3.2670   10.9950 C   0  0  0  0  0  0  0  0  0  0  0  0
   23.9600   -2.2470   10.2830 C   0  0  1  0  0  0  0  0  0  0  0  0
   22.8630   -2.9240    9.5400 N   0  0  0  0  0  0  0  0  0  0  0  0
   22.3120   -2.3300    8.4950 C   0  0  0  0  0  0  0  0  0  0  0  0
   22.6850   -1.2180    8.0930 O   0  0  0  0  0  0  0  0  0  0  0  0
   21.1620   -3.1090    7.7730 C   0  0  0  0  0  0  0  0  0  0  0  0
   20.9950   -3.2040    6.4720 N   0  0  0  0  0  0  0  0  0  0  0  0
   21.8970   -2.5690    5.4950 C   0  0  0  0  0  0  0  0  0  0  0  0
   20.1130   -3.8040    8.3170 C   0  0  0  0  0  0  0  0  0  0  0  0
   19.8630   -4.0220   10.0030 Cl  0  0  0  0  0  0  0  0  0  0  0  0
   19.3520   -4.2900    7.3640 N   0  0  0  0  0  0  0  0  0  0  0  0
   19.9070   -3.9150    6.2060 C   0  0  0  0  0  0  0  0  0  0  0  0
   19.4210   -4.2280    4.7880 C   0  0  0  0  0  0  0  0  0  0  0  0
   18.0410   -4.7840    4.7720 N   0  0  0  0  0  0  0  0  0  0  0  0
   17.1560   -4.0150    4.1760 C   0  0  1  0  0  0  0  0  0  0  0  0
   16.8770   -2.6860    4.4370 C   0  0  0  0  0  0  0  0  0  0  0  0
   17.2930   -1.7750    5.3840 C   0  0  0  0  0  0  0  0  0  0  0  0
   16.8130   -0.4760    5.3670 C   0  0  0  0  0  0  0  0  0  0  0  0
   17.2670    0.5960    6.4290 C   0  0  2  0  0  0  0  0  0  0  0  0
   16.0650    1.0750    7.2340 C   0  0  0  0  0  0  0  0  0  0  0  0
   17.8710    1.7750    5.7080 C   0  0  0  0  0  0  0  0  0  0  0  0
   18.3020    0.0070    7.4650 C   0  0  0  0  0  0  0  0  0  0  0  0
   15.8820   -0.1990    4.3750 C   0  0  0  0  0  0  0  0  0  0  0  0
   15.2070    1.3250    4.2120 Cl  0  0  0  0  0  0  0  0  0  0  0  0
   15.4390   -1.1030    3.4560 C   0  0  0  0  0  0  0  0  0  0  0  0
   15.9630   -2.3470    3.4910 C   0  0  0  0  0  0  0  0  0  0  0  0
   15.7770   -3.3920    2.7540 N   0  0  0  0  0  0  0  0  0  0  0  0
   16.4560   -4.3540    3.1330 N   0  0  0  0  0  0  0  0  0  0  0  0
  2  1  1  0
  3  2  1  0
  4  3  1  0
  5  3  1  0
  6  5  1  0
  7  5  1  0
  8  7  1  0
  8  6  1  0
  8  9  1  6
 10  9  1  0
 11 10  1  0
 12 10  1  0
 13 12  1  0
 14 13  1  0
 15 12  1  0
 16 15  1  0
 17 15  1  0
 18 17  1  0
 18 13  1  0
 19 18  1  0
 20 19  1  0
 21 20  1  6
 22 21  1  0
 23 22  1  0
 24 23  1  0
 25 24  1  0
 25 26  1  1
 27 25  1  0
 28 25  1  0
 29 24  1  0
 30 29  1  0
 31 29  1  0
 32 31  1  0
 32 22  1  0
 33 32  1  0
 34 33  1  0
 34 21  1  0
M  END
$$$$

     RDKit          3D

 26 27  0  0  0  0  0  0  0  0999 V2000
   18.2060   -0.7990   10.2710 C   0  0  0  0  0  0  0  0  0  0  0  0
   17.2310   -0.7670    9.2660 C   0  0  0  0  0  0  0  0  0  0  0  0
   17.4940   -0.1670    8.0510 C   0  0  0  0  0  0  0  0  0  0  0  0
   18.8000    2.4760    6.3630 C   0  0  0  0  0  0  0  0  0  0  0  0
   24.1550   -1.5680   10.0560 C   0  0  0  0  0  0  0  0  0  0  0  0
   26.0250   -5.2850   12.8860 C   0  0  0  0  0  0  0  0  0  0  0  0
   24.9320   -6.8810   11.0250 O   0  0  0  0  0  0  0  0  0  0  0  0
   24.5680   -6.0060   12.1470 S   0  0  2  0  0  0  0  0  0  0  0  0
   23.5280   -4.8040   11.5830 N   0  0  0  0  0  0  0  0  0  0  0  0
   24.2740   -3.9480   10.7230 C   0  0  1  0  0  0  0  0  0  0  0  0
   24.0680   -4.2790    9.2700 C   0  0  0  0  0  0  0  0  0  0  0  0
   23.5750   -3.2370    8.3330 C   0  0  0  0  0  0  0  0  0  0  0  0
   23.3730   -1.8990    8.8790 N   0  0  0  0  0  0  0  0  0  0  0  0
   22.4280   -0.9870    8.3020 C   0  0  2  0  0  0  0  0  0  0  0  0
   22.1950    0.3580    8.9540 C   0  0  0  0  0  0  0  0  0  0  0  0
   21.0200    0.9910    8.5420 N   0  0  0  0  0  0  0  0  0  0  0  0
   19.7350    0.3800    8.8170 C   0  0  0  0  0  0  0  0  0  0  0  0
   19.4720   -0.2170   10.0370 C   0  0  0  0  0  0  0  0  0  0  0  0
   17.8660   -1.5430   11.7960 Cl  0  0  0  0  0  0  0  0  0  0  0  0
   15.6640   -1.4640    9.5250 Cl  0  0  0  0  0  0  0  0  0  0  0  0
   18.7550    0.4080    7.8110 C   0  0  0  0  0  0  0  0  0  0  0  0
   19.0450    1.0490    6.4970 C   0  0  0  0  0  0  0  0  0  0  0  0
   21.7520   -1.2840    7.3170 O   0  0  0  0  0  0  0  0  0  0  0  0
   24.0300   -2.5350   11.1460 C   0  0  0  0  0  0  0  0  0  0  0  0
   25.9060   -4.6660   14.2370 C   0  0  0  0  0  0  0  0  0  0  0  0
   23.8710   -6.8030   13.0990 O   0  0  0  0  0  0  0  0  0  0  0  0
  2  1  1  0
  3  2  1  0
  8  7  1  6
  8  6  1  0
  9  8  1  0
 10  9  1  1
 11 10  1  0
 12 11  1  0
 13 12  1  0
 13  5  1  0
 14 13  1  0
 15 14  1  0
 16 15  1  0
 17 16  1  0
 18 17  1  0
 18  1  1  0
 19  1  1  0
 20  2  1  0
 21 17  1  0
 21  3  1  0
 22 21  1  0
 22  4  1  0
 14 23  1  1
 24 10  1  0
 24  5  1  0
 25  6  1  0
 26  8  1  0
M  END
$$$$

     RDKit          3D

 26 27  0  0  0  0  0  0  0  0999 V2000
   16.0020   -1.9740    8.8680 C   0  0  0  0  0  0  0  0  0  0  0  0
   15.4520   -0.8540    8.2420 C   0  0  0  0  0  0  0  0  0  0  0  0
   16.2510    0.1100    7.6780 C   0  0  0  0  0  0  0  0  0  0  0  0
   18.0040    2.0370    6.3030 C   0  0  0  0  0  0  0  0  0  0  0  0
   22.0300   -3.3410   11.5350 C   0  0  0  0  0  0  0  0  0  0  0  0
   26.1190   -5.6040   14.8350 C   0  0  0  0  0  0  0  0  0  0  0  0
   25.8890   -7.2100   12.6800 O   0  0  0  0  0  0  0  0  0  0  0  0
   25.2700   -6.0360   13.3170 S   0  0  2  0  0  0  0  0  0  0  0  0
   25.4140   -4.6900   12.3250 N   0  0  0  0  0  0  0  0  0  0  0  0
   24.2650   -4.3840   11.5450 C   0  0  2  0  0  0  0  0  0  0  0  0
   24.6580   -3.3500   10.5400 C   0  0  0  0  0  0  0  0  0  0  0  0
   23.9690   -2.0620   10.7900 C   0  0  0  0  0  0  0  0  0  0  0  0
   22.5460   -2.3140   10.6430 N   0  0  0  0  0  0  0  0  0  0  0  0
   21.7410   -1.6160    9.6820 C   0  0  0  0  0  0  0  0  0  0  0  0
   20.2610   -1.9210    9.5320 C   0  0  0  0  0  0  0  0  0  0  0  0
   19.6330   -1.3160    8.4350 N   0  0  0  0  0  0  0  0  0  0  0  0
   18.1980   -1.1660    8.3800 C   0  0  0  0  0  0  0  0  0  0  0  0
   17.3910   -2.1330    8.9330 C   0  0  0  0  0  0  0  0  0  0  0  0
   14.9480   -3.1560    9.5560 Cl  0  0  0  0  0  0  0  0  0  0  0  0
   13.7350   -0.7290    8.2030 Cl  0  0  0  0  0  0  0  0  0  0  0  0
   17.6510   -0.0360    7.7440 C   0  0  0  0  0  0  0  0  0  0  0  0
   18.5540    0.9770    7.1440 C   0  0  0  0  0  0  0  0  0  0  0  0
   22.2470   -0.7710    8.9510 O   0  0  0  0  0  0  0  0  0  0  0  0
   23.0890   -3.9540   12.3740 C   0  0  0  0  0  0  0  0  0  0  0  0
   26.1910   -4.1450   15.1720 C   0  0  0  0  0  0  0  0  0  0  0  0
   23.9470   -6.5180   13.5460 O   0  0  0  0  0  0  0  0  0  0  0  0
  2  1  1  0
  3  2  1  0
  8  7  1  6
  8  6  1  0
  9  8  1  0
 10  9  1  1
 11 10  1  0
 12 11  1  0
 13 12  1  0
 13  5  1  0
 14 13  1  0
 15 14  1  0
 16 15  1  0
 17 16  1  0
 18  1  1  0
 18 17  1  0
 19  1  1  0
 20  2  1  0
 21  3  1  0
 21 17  1  0
 22 21  1  0
 22  4  1  0
 23 14  1  0
 24 10  1  0
 24  5  1  0
 25  6  1  0
 26  8  1  0
M  END
$$$$

     RDKit          3D

 37 43  0  0  0  0  0  0  0  0999 V2000
   22.0450   -2.0430    6.6620 C   0  0  0  0  0  0  0  0  0  0  0  0
   18.2940   -1.1660    4.6460 C   0  0  2  0  0  0  0  0  0  0  0  0
   19.6290   -2.7620    6.1160 C   0  0  0  0  0  0  0  0  0  0  0  0
   20.7350   -2.6900    7.2370 C   0  0  0  0  0  0  0  0  0  0  0  0
   18.8510    0.9580    6.9340 C   0  0  0  0  0  0  0  0  0  0  0  0
   17.6960    0.9910    5.9360 C   0  0  0  0  0  0  0  0  0  0  0  0
   16.8090    2.0660    6.0690 C   0  0  0  0  0  0  0  0  0  0  0  0
   15.7090    2.2170    5.2100 C   0  0  0  0  0  0  0  0  0  0  0  0
   15.4850    1.2810    4.2020 C   0  0  0  0  0  0  0  0  0  0  0  0
   16.3710    0.1750    4.0520 C   0  0  0  0  0  0  0  0  0  0  0  0
   16.0780   -0.7420    3.0100 C   0  0  0  0  0  0  0  0  0  0  0  0
   16.8890   -1.8430    2.7970 C   0  0  0  0  0  0  0  0  0  0  0  0
   17.9970   -2.0450    3.6120 C   0  0  0  0  0  0  0  0  0  0  0  0
   21.9570   -1.3290    5.5310 C   0  0  0  0  0  0  0  0  0  0  0  0
   20.7030   -1.0830    4.7520 C   0  0  0  0  0  0  0  0  0  0  0  0
   24.2280   -0.8480    5.4940 C   0  0  0  0  0  0  0  0  0  0  0  0
   26.6740   -0.5120    5.4810 C   0  0  0  0  0  0  0  0  0  0  0  0
   27.7200    0.1840    4.5520 C   0  0  2  0  0  0  0  0  0  0  0  0
   27.3890    1.6830    4.3760 C   0  0  0  0  0  0  0  0  0  0  0  0
   27.5360    1.9230    3.1450 C   0  0  0  0  0  0  0  0  0  0  0  0
   27.2940    0.5150    2.3670 C   0  0  0  0  0  0  0  0  0  0  0  0
   28.7010   -0.8910    2.8580 C   0  0  0  0  0  0  0  0  0  0  0  0
   23.3740   -2.1730    7.2510 C   0  0  0  0  0  0  0  0  0  0  0  0
   23.0970   -2.6140    9.5840 C   0  0  2  0  0  0  0  0  0  0  0  0
   23.9230   -1.4190   10.0790 C   0  0  0  0  0  0  0  0  0  0  0  0
   25.3200   -1.8160    9.5080 C   0  0  0  0  0  0  0  0  0  0  0  0
   24.9990   -3.0950    8.7170 C   0  0  1  0  0  0  0  0  0  0  0  0
   25.3000   -4.3880    9.3870 C   0  0  0  0  0  0  0  0  0  0  0  0
   22.9340   -3.7850   10.4880 C   0  0  0  0  0  0  0  0  0  0  0  0
   17.4640    0.0040    4.8790 C   0  0  0  0  0  0  0  0  0  0  0  0
   19.4880   -1.4810    5.3930 N   0  0  0  0  0  0  0  0  0  0  0  0
   23.0550   -0.7130    4.9270 N   0  0  0  0  0  0  0  0  0  0  0  0
   27.6310   -0.4340    3.1700 N   0  0  0  0  0  0  0  0  0  0  0  0
   24.3790   -1.5590    6.6140 N   0  0  0  0  0  0  0  0  0  0  0  0
   23.7520   -2.8960    8.5310 N   0  0  0  0  0  0  0  0  0  0  0  0
   24.3240   -4.5920   10.6590 N   0  0  0  0  0  0  0  0  0  0  0  0
   25.3890   -0.2230    4.8860 O   0  0  0  0  0  0  0  0  0  0  0  0
  4  3  1  0
  4  1  1  0
  6  5  1  0
  7  6  1  0
  8  7  1  0
  9  8  1  0
 10  9  1  0
 11 10  1  0
 12 11  1  0
 13 12  1  0
 13  2  1  0
 14  1  1  0
 15 14  1  0
 18 17  1  1
 19 18  1  0
 20 19  1  0
 21 20  1  0
 23  1  1  0
 24 25  1  1
 26 25  1  0
 27 26  1  1
 28 27  1  0
 29 24  1  0
 30 10  1  0
 30  2  1  0
 30  6  1  0
 31 15  1  0
  2 31  1  6
 31  3  1  0
 32 16  1  0
 32 14  1  0
 33 22  1  0
 33 21  1  0
 33 18  1  0
 34 23  1  0
 34 16  1  0
 35 27  1  0
 35 24  1  0
 35 23  1  0
 36 29  1  0
 36 28  1  0
 37 17  1  0
 37 16  1  0
M  END
$$$$

     RDKit          3D

 38 44  0  0  0  0  0  0  0  0999 V2000
   19.2980   -3.1500    6.1830 N   0  0  0  0  0  0  0  0  0  0  0  0
   21.6400   -2.6590    6.5050 C   0  0  2  0  0  0  0  0  0  0  0  0
   20.4500   -3.4080    6.7590 C   0  0  0  0  0  0  0  0  0  0  0  0
   23.8120   -1.3860    5.6330 C   0  0  0  0  0  0  0  0  0  0  0  0
   17.9050   -1.8690    4.6710 C   0  0  0  0  0  0  0  0  0  0  0  0
   24.9370   -3.6360    9.8410 C   0  0  2  0  0  0  0  0  0  0  0  0
   22.7720   -3.2370   10.5890 C   0  0  2  0  0  0  0  0  0  0  0  0
   24.8080   -2.0980    9.9020 C   0  0  0  0  0  0  0  0  0  0  0  0
   26.1960   -1.0550    5.6830 C   0  0  0  0  0  0  0  0  0  0  0  0
   27.2400   -0.4380    4.6700 C   0  0  2  0  0  0  0  0  0  0  0  0
   26.5130   -0.2150    2.3980 C   0  0  0  0  0  0  0  0  0  0  0  0
   26.9450    1.0500    4.3560 C   0  0  0  0  0  0  0  0  0  0  0  0
   20.3290   -1.4190    4.9770 C   0  0  0  0  0  0  0  0  0  0  0  0
   24.4640   -4.2440    8.5020 C   0  0  0  0  0  0  0  0  0  0  0  0
   22.1090   -3.7570    9.2820 C   0  0  0  0  0  0  0  0  0  0  0  0
   23.3640   -1.8300   10.4040 C   0  0  0  0  0  0  0  0  0  0  0  0
   19.1810   -2.1170    5.3190 C   0  0  2  0  0  0  0  0  0  0  0  0
   27.0130    1.1750    2.8100 C   0  0  0  0  0  0  0  0  0  0  0  0
   28.4860   -1.6050    2.8550 C   0  0  0  0  0  0  0  0  0  0  0  0
   17.3630   -2.8900    3.9120 C   0  0  0  0  0  0  0  0  0  0  0  0
   21.5820   -1.6900    5.5180 C   0  0  0  0  0  0  0  0  0  0  0  0
   16.1500   -2.7220    3.2070 C   0  0  0  0  0  0  0  0  0  0  0  0
   15.4720   -1.5350    3.2400 C   0  0  0  0  0  0  0  0  0  0  0  0
   15.9980   -0.4550    4.0100 C   0  0  2  0  0  0  0  0  0  0  0  0
   17.2060   -0.6260    4.7330 C   0  0  0  0  0  0  0  0  0  0  0  0
   15.3090    0.7890    4.1310 C   0  0  0  0  0  0  0  0  0  0  0  0
   15.8070    1.8120    4.8890 C   0  0  0  0  0  0  0  0  0  0  0  0
   16.9990    1.6320    5.5960 C   0  0  0  0  0  0  0  0  0  0  0  0
   17.7000    0.4630    5.5150 C   0  0  0  0  0  0  0  0  0  0  0  0
   22.9140   -2.9020    7.0590 C   0  0  0  0  0  0  0  0  0  0  0  0
   20.2630   -0.3890    4.0750 F   0  0  0  0  0  0  0  0  0  0  0  0
   23.0920   -3.7640    8.1260 N   0  0  0  0  0  0  0  0  0  0  0  0
   23.9640   -4.0680   10.9060 N   0  0  0  0  0  0  0  0  0  0  0  0
   27.1510   -1.1560    3.3520 N   0  0  0  0  0  0  0  0  0  0  0  0
   22.6930   -1.0140    5.0810 N   0  0  0  0  0  0  0  0  0  0  0  0
   23.9920   -2.2920    6.5980 N   0  0  0  0  0  0  0  0  0  0  0  0
   24.8890   -0.7920    5.1080 O   0  0  0  0  0  0  0  0  0  0  0  0
   15.6990   -3.7870    2.5140 O   0  0  0  0  0  0  0  0  0  0  0  0
  2  3  1  6
  3  1  1  0
  6  8  1  6
 10  9  1  1
 12 10  1  0
 14  6  1  0
  7 15  1  6
 16  8  1  0
 16  7  1  0
 17 13  1  0
 17  5  1  6
 17  1  1  0
 18 12  1  0
 18 11  1  0
 20  5  1  0
 21 13  1  0
 21  2  1  0
 22 20  1  0
 23 22  1  0
 24 23  1  1
 25 24  1  0
 25  5  1  0
 26 24  1  0
 27 26  1  0
 28 27  1  0
 29 25  1  0
 29 28  1  0
 30  2  1  0
 31 13  1  0
 32 30  1  0
 32 15  1  0
 32 14  1  0
 33  7  1  0
 33  6  1  0
 34 11  1  0
 34 10  1  0
 34 19  1  0
 35 21  1  0
 35  4  1  0
 36 30  1  0
 36  4  1  0
 37  9  1  0
 37  4  1  0
 38 22  1  0
M  END
$$$$

     RDKit          3D

 46 52  0  0  0  0  0  0  0  0999 V2000
   16.2620    0.4760    3.6280 C   0  0  0  0  0  0  0  0  0  0  0  0
   15.7200   -0.5380    2.8560 C   0  0  0  0  0  0  0  0  0  0  0  0
   20.6960   -1.7270    6.6160 C   0  0  0  0  0  0  0  0  0  0  0  0
   18.1110   -3.1620    2.9020 C   0  0  0  0  0  0  0  0  0  0  0  0
   21.8770   -1.6300    5.9330 C   0  0  0  0  0  0  0  0  0  0  0  0
   17.6920   -1.8570    3.3000 C   0  0  0  0  0  0  0  0  0  0  0  0
   18.2090   -0.8310    4.0760 C   0  0  0  0  0  0  0  0  0  0  0  0
   19.4810   -1.1090    4.6760 C   0  0  0  0  0  0  0  0  0  0  0  0
   19.5000   -1.4660    6.0070 C   0  0  0  0  0  0  0  0  0  0  0  0
   17.4920    0.3450    4.2470 C   0  0  0  0  0  0  0  0  0  0  0  0
   21.8900   -1.2660    4.6110 C   0  0  0  0  0  0  0  0  0  0  0  0
   16.4560   -1.6960    2.7010 C   0  0  0  0  0  0  0  0  0  0  0  0
   20.6600   -1.0220    3.9880 C   0  0  0  0  0  0  0  0  0  0  0  0
   23.1010   -1.8680    6.5230 C   0  0  0  0  0  0  0  0  0  0  0  0
   24.1960   -1.3910    4.6400 C   0  0  0  0  0  0  0  0  0  0  0  0
   18.1450   -0.8970    7.9440 C   0  0  0  0  0  0  0  0  0  0  0  0
   25.8700   -4.2390   14.8480 C   0  0  0  0  0  0  0  0  0  0  0  0
   18.3000   -1.5840    6.8070 C   0  0  0  0  0  0  0  0  0  0  0  0
   24.5650   -4.6700   14.1930 C   0  0  0  0  0  0  0  0  0  0  0  0
   23.6640   -3.4570   13.9590 C   0  0  0  0  0  0  0  0  0  0  0  0
   26.7860    0.1200    5.3310 C   0  0  0  0  0  0  0  0  0  0  0  0
   27.6350   -1.5380    3.5740 C   0  0  0  0  0  0  0  0  0  0  0  0
   22.0240   -3.1320    9.8770 C   0  0  0  0  0  0  0  0  0  0  0  0
   24.2580   -1.9020    9.9550 C   0  0  0  0  0  0  0  0  0  0  0  0
   26.9710    1.2450    4.3320 C   0  0  0  0  0  0  0  0  0  0  0  0
   27.9030   -0.3720    2.6210 C   0  0  0  0  0  0  0  0  0  0  0  0
   21.9370   -2.3730    8.6170 C   0  0  0  0  0  0  0  0  0  0  0  0
   24.4440   -2.4290    8.5460 C   0  0  0  0  0  0  0  0  0  0  0  0
   23.8150   -3.8890   11.4470 C   0  0  0  0  0  0  0  0  0  0  0  0
   22.7450   -2.1110   12.0260 C   0  0  0  0  0  0  0  0  0  0  0  0
   26.5830   -1.2290    4.6380 C   0  0  2  0  0  0  0  0  0  0  0  0
   23.2150   -2.6960   10.6930 C   0  0  2  0  0  0  0  0  0  0  0  0
   18.0000    1.4990    5.0830 C   0  0  0  0  0  0  0  0  0  0  0  0
   20.5130   -1.8090    0.4900 C   0  0  0  0  0  0  0  0  0  0  0  0
   28.4460    2.0700    2.5320 C   0  0  0  0  0  0  0  0  0  0  0  0
   21.1730   -1.7080    1.8470 C   0  0  0  0  0  0  0  0  0  0  0  0
   17.2240   -3.7800    2.1090 N   0  0  0  0  0  0  0  0  0  0  0  0
   23.0670   -1.1540    3.9690 N   0  0  0  0  0  0  0  0  0  0  0  0
   24.2680   -1.7570    5.9090 N   0  0  0  0  0  0  0  0  0  0  0  0
   16.2380   -2.8620    2.0100 N   0  0  0  0  0  0  0  0  0  0  0  0
   23.1750   -2.2420    7.8520 N   0  0  0  0  0  0  0  0  0  0  0  0
   23.2290   -3.3320   12.6690 N   0  0  0  0  0  0  0  0  0  0  0  0
   28.0660    0.9180    3.3870 N   0  0  0  0  0  0  0  0  0  0  0  0
   23.3730   -2.6900   14.8600 O   0  0  0  0  0  0  0  0  0  0  0  0
   20.6300   -0.6520    2.6500 O   0  0  0  0  0  0  0  0  0  0  0  0
   25.3580   -1.2440    3.9000 O   0  0  0  0  0  0  0  0  0  0  0  0
  2  1  1  0
  5  3  1  0
  6  4  1  0
  7  6  1  0
  8  7  1  0
  9  8  1  0
  9  3  1  0
 10  1  1  0
 10  7  1  0
 11  5  1  0
 12  2  1  0
 12  6  1  0
 13  8  1  0
 13 11  1  0
 14  5  1  0
 18 16  1  0
 18  9  1  0
 19 17  1  0
 20 19  1  0
 25 21  1  0
 26 22  1  0
 27 23  1  0
 28 24  1  0
 31 21  1  0
 31 22  1  0
 32 24  1  6
 32 23  1  0
 32 30  1  0
 32 29  1  0
 33 10  1  0
 36 34  1  0
 37  4  1  0
 38 15  1  0
 38 11  1  0
 39 15  1  0
 39 14  1  0
 40 37  1  0
 40 12  1  0
 41 28  1  0
 41 27  1  0
 41 14  1  0
 42 30  1  0
 42 29  1  0
 42 20  1  0
 43 25  1  0
 43 35  1  0
 43 26  1  0
 44 20  1  0
 45 36  1  0
 45 13  1  0
 31 46  1  6
 46 15  1  0
M  END
$$$$

     RDKit          3D

 38 43  0  0  0  0  0  0  0  0999 V2000
   22.6580   -1.1290    5.5790 N   0  0  0  0  0  0  0  0  0  0  0  0
   23.7190   -1.3520    6.2300 C   0  0  0  0  0  0  0  0  0  0  0  0
   21.3110   -1.7210    5.9640 C   0  0  0  0  0  0  0  0  0  0  0  0
   21.3740   -2.5290    7.0540 C   0  0  0  0  0  0  0  0  0  0  0  0
   22.8170   -2.6370    7.6490 C   0  0  0  0  0  0  0  0  0  0  0  0
   20.0330   -3.2530    7.5640 C   0  0  0  0  0  0  0  0  0  0  0  0
   19.0510   -3.5250    6.1960 C   0  0  0  0  0  0  0  0  0  0  0  0
   24.5640   -2.4960   12.7040 C   0  0  0  0  0  0  0  0  0  0  0  0
   23.9840   -3.2000   11.4810 C   0  0  2  0  0  0  0  0  0  0  0  0
   20.1410   -1.5580    5.3580 C   0  0  0  0  0  0  0  0  0  0  0  0
   24.3400   -3.9530    9.1450 C   0  0  0  0  0  0  0  0  0  0  0  0
   24.9690   -3.1810   10.3080 C   0  0  0  0  0  0  0  0  0  0  0  0
   22.6730   -2.5210   11.0950 C   0  0  2  0  0  0  0  0  0  0  0  0
   22.0770   -3.3570    9.9780 C   0  0  0  0  0  0  0  0  0  0  0  0
   26.0890   -0.9660    6.3740 C   0  0  0  0  0  0  0  0  0  0  0  0
   27.2540   -0.1470    5.6320 C   0  0  2  0  0  0  0  0  0  0  0  0
   27.7620    0.5590    3.5280 C   0  0  0  0  0  0  0  0  0  0  0  0
   26.9790    1.7130    4.2680 C   0  0  0  0  0  0  0  0  0  0  0  0
   26.8620    1.2730    5.5950 C   0  0  0  0  0  0  0  0  0  0  0  0
   28.3180   -1.4260    4.2250 C   0  0  0  0  0  0  0  0  0  0  0  0
   17.8370   -1.7100    4.9440 C   0  0  0  0  0  0  0  0  0  0  0  0
   17.4750   -2.6700    3.9690 C   0  0  0  0  0  0  0  0  0  0  0  0
   16.3790   -2.3730    3.0670 C   0  0  0  0  0  0  0  0  0  0  0  0
   15.6860   -1.1390    3.1750 C   0  0  0  0  0  0  0  0  0  0  0  0
   16.0640   -0.2470    4.1280 C   0  0  0  0  0  0  0  0  0  0  0  0
   17.2070   -0.5140    5.0710 C   0  0  0  0  0  0  0  0  0  0  0  0
   15.3750    1.0740    4.2820 C   0  0  0  0  0  0  0  0  0  0  0  0
   15.7780    1.9100    5.2070 C   0  0  0  0  0  0  0  0  0  0  0  0
   16.6990    1.5890    5.8980 C   0  0  0  0  0  0  0  0  0  0  0  0
   17.4230    0.5730    5.9860 C   0  0  0  0  0  0  0  0  0  0  0  0
   22.9980   -3.4800    8.8430 N   0  0  0  0  0  0  0  0  0  0  0  0
   27.4250   -0.5720    4.3220 N   0  0  0  0  0  0  0  0  0  0  0  0
   23.8070   -2.0450    7.1880 N   0  0  0  0  0  0  0  0  0  0  0  0
   18.9580   -2.0690    5.7590 N   0  0  0  0  0  0  0  0  0  0  0  0
   22.8670   -1.2070   10.6130 O   0  0  0  0  0  0  0  0  0  0  0  0
   23.8040   -1.9550   13.4450 O   0  0  0  0  0  0  0  0  0  0  0  0
   24.8650   -0.7020    5.7390 O   0  0  0  0  0  0  0  0  0  0  0  0
   18.6690    0.4830    7.2590 Cl  0  0  0  0  0  0  0  0  0  0  0  0
  2  1  1  0
  3  1  1  0
  4  3  1  0
  5  4  1  0
  6  4  1  0
  7  6  1  0
  9  8  1  1
 10  3  1  0
 12 11  1  0
 12  9  1  0
 13  9  1  0
 14 13  1  0
 16 15  1  6
 18 17  1  0
 19 18  1  0
 19 16  1  0
 22 21  1  0
 23 22  1  0
 24 23  1  0
 25 24  1  0
 26 25  1  0
 26 21  1  0
 27 25  1  0
 28 27  1  0
 29 28  1  0
 30 26  1  0
 30 29  1  0
 31 14  1  0
 31 11  1  0
 31  5  1  0
 32 20  1  0
 32 17  1  0
 32 16  1  0
 33  5  1  0
 33  2  1  0
 34 21  1  0
 34 10  1  0
 34  7  1  0
 13 35  1  6
 36  8  1  0
 37 15  1  0
 37  2  1  0
 38 30  1  0
M  END
$$$$

     RDKit          3D

 42 47  0  0  0  0  0  0  0  0999 V2000
   25.2400   -2.2940    6.3960 C   0  0  0  0  0  0  0  0  0  0  0  0
   24.1110   -2.8250    7.0130 C   0  0  0  0  0  0  0  0  0  0  0  0
   22.8700   -2.3160    6.6310 C   0  0  0  0  0  0  0  0  0  0  0  0
   21.5220   -0.6520    5.3490 C   0  0  0  0  0  0  0  0  0  0  0  0
   18.0900   -0.0020    6.0520 C   0  0  1  0  0  0  0  0  0  0  0  0
   16.2810    1.8040    6.2690 C   0  0  0  0  0  0  0  0  0  0  0  0
   16.1870    0.1190    4.4350 C   0  0  0  0  0  0  0  0  0  0  0  0
   16.4010   -2.0870    3.3220 C   0  0  1  0  0  0  0  0  0  0  0  0
   18.3550   -2.8570    4.5960 C   0  0  0  0  0  0  0  0  0  0  0  0
   25.5050   -4.4780    8.2980 C   0  0  0  0  0  0  0  0  0  0  0  0
   22.8200   -1.2830    5.6870 C   0  0  0  0  0  0  0  0  0  0  0  0
   19.5150   -0.1030    5.5630 C   0  0  0  0  0  0  0  0  0  0  0  0
   15.7490    1.4870    4.8750 C   0  0  0  0  0  0  0  0  0  0  0  0
   17.7680    1.4840    6.3700 C   0  0  0  0  0  0  0  0  0  0  0  0
   17.2240   -0.5920    4.9460 C   0  0  0  0  0  0  0  0  0  0  0  0
   17.3520   -1.8760    4.3140 C   0  0  0  0  0  0  0  0  0  0  0  0
   17.9360   -0.8680    7.3170 C   0  0  0  0  0  0  0  0  0  0  0  0
   25.2840   -5.7450    9.1190 C   0  0  0  0  0  0  0  0  0  0  0  0
   23.5960   -4.3850   10.2830 C   0  0  0  0  0  0  0  0  0  0  0  0
   25.1070   -1.3000    5.4150 C   0  0  0  0  0  0  0  0  0  0  0  0
   23.1170   -4.2720    8.8410 C   0  0  0  0  0  0  0  0  0  0  0  0
   27.5500   -1.2490    5.1230 C   0  0  0  0  0  0  0  0  0  0  0  0
   28.3870   -1.4420    3.8610 C   0  0  0  0  0  0  0  0  0  0  0  0
   26.9820    0.1540    2.6160 C   0  0  0  0  0  0  0  0  0  0  0  0
   26.0560    0.3670    3.8620 C   0  0  2  0  0  0  0  0  0  0  0  0
   29.2720   -0.3340    1.8410 C   0  0  0  0  0  0  0  0  0  0  0  0
   26.3100    1.6930    4.5710 C   0  0  0  0  0  0  0  0  0  0  0  0
   24.9870   -6.0600   11.5420 C   0  0  1  0  0  0  0  0  0  0  0  0
   24.3380   -5.6530   12.8170 C   0  0  0  0  0  0  0  0  0  0  0  0
   24.9690   -4.8180   13.6850 C   0  0  0  0  0  0  0  0  0  0  0  0
   21.3280    0.1310    4.3200 N   0  0  0  0  0  0  0  0  0  0  0  0
   23.9100   -0.7740    5.0880 N   0  0  0  0  0  0  0  0  0  0  0  0
   19.1240   -3.6820    4.7760 N   0  0  0  0  0  0  0  0  0  0  0  0
   16.2250   -3.1760    2.5540 N   0  0  0  0  0  0  0  0  0  0  0  0
   24.6390   -5.4160   10.3990 N   0  0  0  0  0  0  0  0  0  0  0  0
   26.2000   -0.7820    4.7770 N   0  0  0  0  0  0  0  0  0  0  0  0
   28.3810   -0.2000    3.0290 N   0  0  0  0  0  0  0  0  0  0  0  0
   24.2170   -3.8620    7.9600 N   0  0  0  0  0  0  0  0  0  0  0  0
   20.4100   -0.8280    6.1280 N   0  0  0  0  0  0  0  0  0  0  0  0
   19.9450    0.5130    4.4580 O   0  0  0  0  0  0  0  0  0  0  0  0
   25.8670   -6.9230   11.5420 O   0  0  0  0  0  0  0  0  0  0  0  0
   15.3320   -0.7320    3.1980 S   0  0  0  0  0  0  0  0  0  0  0  0
  2  1  1  0
  3  2  1  0
 11  4  1  0
 11  3  1  0
 12  5  1  0
 13  7  1  0
 13  6  1  0
 14  6  1  0
 14  5  1  0
 15  7  1  0
 15  5  1  0
 16 15  1  0
 16  9  1  0
 16  8  1  0
  5 17  1  1
 18 10  1  0
 20  1  1  0
 21 19  1  0
 23 22  1  0
 25 24  1  0
 25 27  1  1
 29 28  1  0
 30 29  1  0
 31  4  1  0
 32 20  1  0
 32 11  1  0
 33  9  1  0
  8 34  1  1
 35 18  1  0
 35 28  1  0
 35 19  1  0
 36 25  1  0
 36 20  1  0
 36 22  1  0
 37 24  1  0
 37 26  1  0
 37 23  1  0
 38 21  1  0
 38 10  1  0
 38  2  1  0
 39  4  1  0
 39 12  1  0
 40 31  1  0
 40 12  1  0
 28 41  1  1
 42  7  1  0
 42  8  1  0
M  END
$$$$

     RDKit          3D

 27 29  0  0  0  0  0  0  0  0999 V2000
   23.7270   -2.3300   14.4180 O   0  0  0  0  0  0  0  0  0  0  0  0
   16.4200   -2.5500    3.5620 C   0  0  2  0  0  0  0  0  0  0  0  0
   23.4140   -2.7950   12.2760 N   0  0  0  0  0  0  0  0  0  0  0  0
   19.3870   -3.8520    5.5020 C   0  0  0  0  0  0  0  0  0  0  0  0
   19.1190   -3.8230    7.0170 C   0  0  0  0  0  0  0  0  0  0  0  0
   19.5330   -2.8460    9.2310 C   0  0  0  0  0  0  0  0  0  0  0  0
   20.8030   -2.9330   10.0520 C   0  0  0  0  0  0  0  0  0  0  0  0
   23.8090   -3.2380   10.9440 C   0  0  0  0  0  0  0  0  0  0  0  0
   24.6460   -4.4080   13.6360 C   0  0  0  0  0  0  0  0  0  0  0  0
   26.0960   -4.1370   14.0770 C   0  0  0  0  0  0  0  0  0  0  0  0
   22.7750   -1.5510   11.8040 C   0  0  0  0  0  0  0  0  0  0  0  0
   22.2600   -2.2460    8.2000 C   0  0  0  0  0  0  0  0  0  0  0  0
   17.8090   -1.5430    5.2560 C   0  0  0  0  0  0  0  0  0  0  0  0
   17.1830   -0.3290    5.0920 C   0  0  0  0  0  0  0  0  0  0  0  0
   17.7050    1.1350    6.0280 Cl  0  0  0  0  0  0  0  0  0  0  0  0
   16.0890   -0.2860    4.1370 C   0  0  0  0  0  0  0  0  0  0  0  0
   15.1640    1.2480    3.9910 Cl  0  0  0  0  0  0  0  0  0  0  0  0
   17.5300   -2.6550    4.5000 C   0  0  1  0  0  0  0  0  0  0  0  0
   16.1850   -3.6560    2.8240 O   0  0  0  0  0  0  0  0  0  0  0  0
   15.7700   -1.3740    3.3970 C   0  0  0  0  0  0  0  0  0  0  0  0
   18.1700   -3.8190    4.6950 N   0  0  0  0  0  0  0  0  0  0  0  0
   18.1930   -4.4770    7.4780 O   0  0  0  0  0  0  0  0  0  0  0  0
   19.9270   -3.0350    7.8030 N   0  0  0  0  0  0  0  0  0  0  0  0
   21.0440   -2.2160    7.2930 C   0  0  0  0  0  0  0  0  0  0  0  0
   21.9130   -2.1050    9.6300 N   0  0  0  0  0  0  0  0  0  0  0  0
   23.1150   -1.9440   10.4110 C   0  0  2  0  0  0  0  0  0  0  0  0
   23.8620   -3.1000   13.4450 C   0  0  1  0  0  0  0  0  0  0  0  0
  5  4  1  0
  7  6  1  0
  8  3  1  0
 10  9  1  0
 11  3  1  0
 14 13  1  0
 15 14  1  0
 16 14  1  0
 17 16  1  0
 18 13  1  0
 18  2  1  0
  2 19  1  6
 20 16  1  0
 20  2  1  0
 18 21  1  1
 21  4  1  0
 22  5  1  0
 23  6  1  0
 23  5  1  0
 24 23  1  0
 24 12  1  0
 25  7  1  0
 25 12  1  0
 26 25  1  6
 26 11  1  0
 26  8  1  0
 27  9  1  0
 27  3  1  0
 27  1  1  6
M  END
$$$$

     RDKit          3D

 37 43  0  0  0  0  0  0  0  0999 V2000
   21.5210   -1.5490    5.6770 C   0  0  0  0  0  0  0  0  0  0  0  0
   21.5800   -2.3810    6.7960 C   0  0  0  0  0  0  0  0  0  0  0  0
   22.8540   -2.6120    7.3780 C   0  0  0  0  0  0  0  0  0  0  0  0
   23.9390   -2.0340    6.8150 N   0  0  0  0  0  0  0  0  0  0  0  0
   22.6350   -1.0070    5.1830 N   0  0  0  0  0  0  0  0  0  0  0  0
   23.8260   -1.2360    5.7430 C   0  0  0  0  0  0  0  0  0  0  0  0
   20.3820   -2.9330    7.2900 C   0  0  0  0  0  0  0  0  0  0  0  0
   19.2950   -3.1280    6.2470 C   0  0  0  0  0  0  0  0  0  0  0  0
   20.3490   -1.2270    4.9910 C   0  0  0  0  0  0  0  0  0  0  0  0
   26.1520   -0.8000    5.8470 C   0  0  0  0  0  0  0  0  0  0  0  0
   24.4930   -3.9510    8.5590 C   0  0  0  0  0  0  0  0  0  0  0  0
   25.1300   -3.5970    9.9230 C   0  0  1  0  0  0  0  0  0  0  0  0
   23.1220   -3.1480   10.9240 C   0  0  2  0  0  0  0  0  0  0  0  0
   22.3200   -3.5120    9.6930 C   0  0  0  0  0  0  0  0  0  0  0  0
   18.0000   -1.4860    4.8900 C   0  0  2  0  0  0  0  0  0  0  0  0
   17.5920   -2.3530    3.8770 C   0  0  0  0  0  0  0  0  0  0  0  0
   16.4810   -2.1150    3.0900 C   0  0  0  0  0  0  0  0  0  0  0  0
   15.7700   -0.9540    3.3150 C   0  0  0  0  0  0  0  0  0  0  0  0
   16.1630   -0.0530    4.2960 C   0  0  0  0  0  0  0  0  0  0  0  0
   17.2930   -0.2700    5.1110 C   0  0  0  0  0  0  0  0  0  0  0  0
   15.3720    1.0800    4.4250 C   0  0  0  0  0  0  0  0  0  0  0  0
   15.6610    2.0430    5.3790 C   0  0  0  0  0  0  0  0  0  0  0  0
   16.7690    1.8540    6.1980 C   0  0  0  0  0  0  0  0  0  0  0  0
   17.5770    0.7230    6.0910 C   0  0  0  0  0  0  0  0  0  0  0  0
   18.6300    0.7000    7.0120 C   0  0  0  0  0  0  0  0  0  0  0  0
   27.2330   -0.2310    4.9380 C   0  0  2  0  0  0  0  0  0  0  0  0
   26.6370    0.2530    2.7380 C   0  0  0  0  0  0  0  0  0  0  0  0
   27.3520    1.4650    3.2940 C   0  0  0  0  0  0  0  0  0  0  0  0
   26.9610    1.2760    4.7400 C   0  0  0  0  0  0  0  0  0  0  0  0
   28.5110   -1.2100    3.1020 C   0  0  0  0  0  0  0  0  0  0  0  0
   23.7350   -1.7620   10.6970 C   0  0  0  0  0  0  0  0  0  0  0  0
   25.1330   -2.0790   10.1280 C   0  0  0  0  0  0  0  0  0  0  0  0
   23.1440   -3.3660    8.4690 N   0  0  0  0  0  0  0  0  0  0  0  0
   19.1380   -1.8970    5.4750 N   0  0  0  0  0  0  0  0  0  0  0  0
   24.3150   -4.0050   11.0770 N   0  0  0  0  0  0  0  0  0  0  0  0
   27.1600   -0.8420    3.5820 N   0  0  0  0  0  0  0  0  0  0  0  0
   24.8980   -0.6470    5.1530 O   0  0  0  0  0  0  0  0  0  0  0  0
  2  1  1  0
  3  2  1  0
  4  3  1  0
  5  1  1  0
  6  5  1  0
  6  4  1  0
  7  2  1  0
  8  7  1  0
  9  1  1  0
 12 11  1  6
 13 14  1  6
 16 15  1  0
 17 16  1  0
 18 17  1  0
 19 18  1  0
 20 19  1  0
 20 15  1  0
 21 19  1  0
 22 21  1  0
 23 22  1  0
 24 20  1  0
 24 23  1  0
 25 24  1  0
 26 10  1  1
 28 27  1  0
 29 26  1  0
 29 28  1  0
 31 13  1  0
 32 31  1  0
 32 12  1  0
 33 14  1  0
 33 11  1  0
 33  3  1  0
 15 34  1  6
 34  9  1  0
 34  8  1  0
 35 12  1  0
 35 13  1  0
 36 27  1  0
 36 26  1  0
 36 30  1  0
 37 10  1  0
 37  6  1  0
M  END
$$$$

     RDKit          3D

 44 49  0  0  0  0  0  0  0  0999 V2000
   24.1070   -2.5410   11.6910 N   0  0  0  0  0  0  0  0  0  0  0  0
   18.9500   -1.1450    5.8760 C   0  0  0  0  0  0  0  0  0  0  0  0
   20.1360   -0.7710    5.2980 C   0  0  0  0  0  0  0  0  0  0  0  0
   22.9840   -2.1980    9.1180 N   0  0  0  0  0  0  0  0  0  0  0  0
   21.3770   -0.8790    5.9710 C   0  0  0  0  0  0  0  0  0  0  0  0
   24.7750   -0.4790    5.2650 O   0  0  0  0  0  0  0  0  0  0  0  0
   15.7930    0.2840    4.2810 C   0  0  0  0  0  0  0  0  0  0  0  0
   16.9630    0.2360    5.0780 C   0  0  0  0  0  0  0  0  0  0  0  0
   17.3880    1.4790    5.8480 C   0  0  1  0  0  0  0  0  0  0  0  0
   23.7830   -1.2440    7.1580 N   0  0  0  0  0  0  0  0  0  0  0  0
   17.6660   -0.9950    5.1380 C   0  0  0  0  0  0  0  0  0  0  0  0
   16.1470   -2.0660    3.7620 C   0  0  0  0  0  0  0  0  0  0  0  0
   15.4020   -0.8880    3.6340 C   0  0  0  0  0  0  0  0  0  0  0  0
   22.5120   -0.5150    5.2930 N   0  0  0  0  0  0  0  0  0  0  0  0
   17.2740   -2.1120    4.5040 N   0  0  0  0  0  0  0  0  0  0  0  0
   14.9200    1.5160    4.0970 C   0  0  0  0  0  0  0  0  0  0  0  0
   20.0230   -2.0700    9.2060 O   0  0  0  0  0  0  0  0  0  0  0  0
   21.4100   -1.3950    7.2990 C   0  0  1  0  0  0  0  0  0  0  0  0
   20.1570   -1.7280    7.8850 C   0  0  2  0  0  0  0  0  0  0  0  0
   18.9850   -1.6260    7.1820 C   0  0  0  0  0  0  0  0  0  0  0  0
   20.9010   -1.4810   10.1750 C   0  0  0  0  0  0  0  0  0  0  0  0
   22.1400   -2.2790   10.3150 C   0  0  2  0  0  0  0  0  0  0  0  0
   22.8730   -1.7750   11.5410 C   0  0  0  0  0  0  0  0  0  0  0  0
   24.9720   -2.4500   10.5130 C   0  0  0  0  0  0  0  0  0  0  0  0
   24.2340   -2.9380    9.2750 C   0  0  0  0  0  0  0  0  0  0  0  0
   22.7120   -1.5790    7.8690 C   0  0  1  0  0  0  0  0  0  0  0  0
   23.6490   -0.7440    5.9400 C   0  0  0  0  0  0  0  0  0  0  0  0
   26.0310   -0.7470    5.9190 C   0  0  0  0  0  0  0  0  0  0  0  0
   27.1490   -0.3710    4.9770 C   0  0  2  0  0  0  0  0  0  0  0  0
   27.6020    1.0700    5.1680 C   0  0  0  0  0  0  0  0  0  0  0  0
   27.2650    1.7960    3.9190 C   0  0  2  0  0  0  0  0  0  0  0  0
   26.4410    0.9030    3.1100 C   0  0  0  0  0  0  0  0  0  0  0  0
   27.8110   -1.0900    2.7790 C   0  0  0  0  0  0  0  0  0  0  0  0
   24.4430   -3.2380   12.7980 C   0  0  0  0  0  0  0  0  0  0  0  0
   25.7300   -3.9860   12.7830 C   0  0  0  0  0  0  0  0  0  0  0  0
   26.6140   -3.8240   13.6700 C   0  0  0  0  0  0  0  0  0  0  0  0
   18.3050    1.2830    6.7920 F   0  0  0  0  0  0  0  0  0  0  0  0
   17.9200    2.4050    5.0660 F   0  0  0  0  0  0  0  0  0  0  0  0
   16.3770    2.0640    6.4920 F   0  0  0  0  0  0  0  0  0  0  0  0
   28.4640    2.0460    3.2160 F   0  0  0  0  0  0  0  0  0  0  0  0
   26.7590   -0.4520    3.5640 N   0  0  0  0  0  0  0  0  0  0  0  0
   15.7710   -3.2210    3.1550 N   0  0  0  0  0  0  0  0  0  0  0  0
   23.7270   -3.2530   13.7840 O   0  0  0  0  0  0  0  0  0  0  0  0
   17.5230   -2.1080    7.9510 Cl  0  0  0  0  0  0  0  0  0  0  0  0
  3  2  1  0
  5  3  1  0
  8  7  1  0
  9  8  1  0
 11  8  1  0
 11  2  1  0
 13 12  1  0
 13  7  1  0
 14  5  1  0
 15 12  1  0
 15 11  1  0
 16  7  1  0
 18  5  1  6
 19 18  1  0
 19 17  1  1
 20 19  1  0
 20  2  1  0
 21 17  1  0
 22 21  1  6
 22  4  1  0
 23 22  1  0
 23  1  1  0
 24  1  1  0
 25 24  1  0
 25  4  1  0
 26 18  1  0
 26 10  1  6
 26  4  1  0
 27 14  1  0
 27  6  1  0
 27 10  1  0
 28  6  1  0
 29 28  1  1
 30 29  1  0
 31 30  1  0
 32 31  1  0
 34  1  1  0
 35 34  1  0
 36 35  1  0
  9 37  1  1
 38  9  1  0
 39  9  1  0
 31 40  1  6
 41 32  1  0
 41 29  1  0
 41 33  1  0
 42 12  1  0
 43 34  1  0
 44 20  1  0
M  END
$$$$

     RDKit          3D

 28 31  0  0  0  0  0  0  0  0999 V2000
   19.3360   -0.5670    6.2020 C   0  0  2  0  0  0  0  0  0  0  0  0
   17.3330   -0.6160    4.7310 C   0  0  0  0  0  0  0  0  0  0  0  0
   15.7220    1.2060    4.7680 C   0  0  0  0  0  0  0  0  0  0  0  0
   19.4680   -1.0010    7.5000 C   0  0  2  0  0  0  0  0  0  0  0  0
   20.6530   -1.4990    7.9770 C   0  0  0  0  0  0  0  0  0  0  0  0
   22.5950   -2.1870   11.1080 C   0  0  0  0  0  0  0  0  0  0  0  0
   26.1260   -4.0370   13.9250 C   0  0  0  0  0  0  0  0  0  0  0  0
   23.6710   -2.4330   13.5870 O   0  0  0  0  0  0  0  0  0  0  0  0
   23.9480   -3.3020   12.7810 C   0  0  0  0  0  0  0  0  0  0  0  0
   23.4730   -3.2680   11.5110 N   0  0  0  0  0  0  0  0  0  0  0  0
   23.6910   -4.2630   10.4230 C   0  0  0  0  0  0  0  0  0  0  0  0
   24.1480   -3.5750    9.1160 C   0  0  0  0  0  0  0  0  0  0  0  0
   23.3150   -2.4420    8.8030 N   0  0  0  0  0  0  0  0  0  0  0  0
   23.0880   -2.0580    7.5360 C   0  0  2  0  0  0  0  0  0  0  0  0
   24.1800   -2.0400    6.7020 N   0  0  0  0  0  0  0  0  0  0  0  0
   23.9050   -1.5500    5.4760 C   0  0  0  0  0  0  0  0  0  0  0  0
   22.7640   -1.0650    4.9820 N   0  0  0  0  0  0  0  0  0  0  0  0
   21.6990   -1.0670    5.8430 C   0  0  0  0  0  0  0  0  0  0  0  0
   20.4560   -0.5530    5.3780 C   0  0  0  0  0  0  0  0  0  0  0  0
   18.1030    0.0360    5.6960 C   0  0  0  0  0  0  0  0  0  0  0  0
   16.1610   -0.0100    4.2830 C   0  0  0  0  0  0  0  0  0  0  0  0
   16.4650    1.8560    5.7560 C   0  0  0  0  0  0  0  0  0  0  0  0
   17.6260    1.2540    6.1900 C   0  0  0  0  0  0  0  0  0  0  0  0
   18.3560    1.8710    7.1350 F   0  0  0  0  0  0  0  0  0  0  0  0
   21.8060   -1.5380    7.1510 C   0  0  0  0  0  0  0  0  0  0  0  0
   18.0690   -0.9970    8.5510 Cl  0  0  0  0  0  0  0  0  0  0  0  0
   23.1570   -1.4990    9.9070 C   0  0  0  0  0  0  0  0  0  0  0  0
   24.8410   -4.4750   13.1670 C   0  0  0  0  0  0  0  0  0  0  0  0
  4  1  1  0
  5  4  1  0
  9  8  1  0
 10  9  1  0
 10  6  1  0
 11 10  1  0
 12 11  1  0
 13 12  1  0
 14 13  1  1
 15 14  1  0
 16 15  1  0
 17 16  1  0
 18 17  1  0
 19 18  1  0
 19  1  1  0
 20  2  1  0
  1 20  1  1
 21  3  1  0
 21  2  1  0
 22  3  1  0
 23 22  1  0
 23 20  1  0
 24 23  1  0
 25 18  1  0
 25  5  1  0
 25 14  1  0
  4 26  1  6
 27 13  1  0
 27  6  1  0
 28  9  1  0
 28  7  1  0
M  END
$$$$

     RDKit          3D

 36 41  0  0  0  0  0  0  0  0999 V2000
   18.3150   -1.6500    5.1220 C   0  0  2  0  0  0  0  0  0  0  0  0
   20.9810   -3.0610    7.6190 C   0  0  0  0  0  0  0  0  0  0  0  0
   22.0530   -1.5320    5.9320 C   0  0  0  0  0  0  0  0  0  0  0  0
   26.7030   -0.6700    5.7440 C   0  0  0  0  0  0  0  0  0  0  0  0
   27.7770   -0.1640    4.6900 C   0  0  2  0  0  0  0  0  0  0  0  0
   27.7460    1.1810    4.5880 C   0  0  0  0  0  0  0  0  0  0  0  0
   26.9470    0.4890    2.5100 C   0  0  0  0  0  0  0  0  0  0  0  0
   28.3760   -1.0760    2.8830 C   0  0  0  0  0  0  0  0  0  0  0  0
   23.5350   -2.4160    7.5550 C   0  0  0  0  0  0  0  0  0  0  0  0
   18.7450    0.7250    7.1330 C   0  0  0  0  0  0  0  0  0  0  0  0
   17.6590    0.6320    6.1500 C   0  0  0  0  0  0  0  0  0  0  0  0
   16.7730    1.6910    6.1560 C   0  0  0  0  0  0  0  0  0  0  0  0
   15.6990    1.7280    5.2870 C   0  0  0  0  0  0  0  0  0  0  0  0
   15.5000    0.6850    4.3820 C   0  0  0  0  0  0  0  0  0  0  0  0
   16.3850   -0.4030    4.3680 C   0  0  0  0  0  0  0  0  0  0  0  0
   16.1260   -1.4630    3.4030 C   0  0  0  0  0  0  0  0  0  0  0  0
   16.9710   -2.6000    3.3140 C   0  0  0  0  0  0  0  0  0  0  0  0
   18.0530   -2.6780    4.1570 C   0  0  0  0  0  0  0  0  0  0  0  0
   19.8040   -3.1360    6.5380 C   0  0  0  0  0  0  0  0  0  0  0  0
   22.2110   -2.2910    7.0020 C   0  0  0  0  0  0  0  0  0  0  0  0
   20.7300   -1.3250    5.2390 C   0  0  0  0  0  0  0  0  0  0  0  0
   24.2980   -0.9900    5.8940 C   0  0  0  0  0  0  0  0  0  0  0  0
   27.0000    1.5440    3.2760 C   0  0  0  0  0  0  0  0  0  0  0  0
   25.2660   -3.5370    9.1230 C   0  0  0  0  0  0  0  0  0  0  0  0
   25.3860   -4.7410   10.0850 C   0  0  0  0  0  0  0  0  0  0  0  0
   23.3100   -3.9920   11.2130 C   0  0  0  0  0  0  0  0  0  0  0  0
   23.0460   -2.9990   10.0360 C   0  0  1  0  0  0  0  0  0  0  0  0
   23.3450   -1.5680   10.5110 C   0  0  0  0  0  0  0  0  0  0  0  0
   17.4580   -0.4630    5.2200 C   0  0  0  0  0  0  0  0  0  0  0  0
   19.5620   -1.8560    5.9340 N   0  0  0  0  0  0  0  0  0  0  0  0
   23.0950   -0.8730    5.3630 N   0  0  0  0  0  0  0  0  0  0  0  0
   27.5030   -0.6940    3.3250 N   0  0  0  0  0  0  0  0  0  0  0  0
   24.5160   -1.7480    6.9620 N   0  0  0  0  0  0  0  0  0  0  0  0
   23.8140   -3.2590    8.7620 N   0  0  0  0  0  0  0  0  0  0  0  0
   24.5790   -4.6840   11.2630 N   0  0  0  0  0  0  0  0  0  0  0  0
   25.3940   -0.2910    5.2740 O   0  0  0  0  0  0  0  0  0  0  0  0
  5  4  1  1
  6  5  1  0
 11 10  1  0
 12 11  1  0
 13 12  1  0
 14 13  1  0
 15 14  1  0
 16 15  1  0
 17 16  1  0
 18 17  1  0
 18  1  1  0
 19  2  1  0
 20  2  1  0
 20  9  1  0
 20  3  1  0
 21  3  1  0
 23  7  1  0
 23  6  1  0
 25 24  1  0
 27 26  1  0
 27 28  1  1
 29 15  1  0
 29  1  1  0
 29 11  1  0
 30 21  1  0
  1 30  1  6
 30 19  1  0
 31 22  1  0
 31  3  1  0
 32  7  1  0
 32  8  1  0
 32  5  1  0
 33 22  1  0
 33  9  1  0
 34 27  1  0
 34 24  1  0
 34  9  1  0
 35 25  1  0
 35 26  1  0
 36 22  1  0
 36  4  1  0
M  END
$$$$

     RDKit          3D

 56 63  0  0  0  0  0  0  0  0999 V2000
   16.5970   -1.6060    3.7170 C   0  0  0  0  0  0  0  0  0  0  0  0
   20.2250   -1.8900    7.9450 C   0  0  0  0  0  0  0  0  0  0  0  0
   17.8540   -0.5110    5.3620 C   0  0  0  0  0  0  0  0  0  0  0  0
   17.0310    0.6090    5.3210 C   0  0  0  0  0  0  0  0  0  0  0  0
   17.3070    1.7860    6.2090 C   0  0  1  0  0  0  0  0  0  0  0  0
   19.0830   -0.8290    6.1240 C   0  0  1  0  0  0  0  0  0  0  0  0
   19.0560   -1.5430    7.3290 C   0  0  0  0  0  0  0  0  0  0  0  0
   15.7300   -0.5230    3.6330 C   0  0  0  0  0  0  0  0  0  0  0  0
   14.9910    1.7480    4.3140 C   0  0  0  0  0  0  0  0  0  0  0  0
   21.4680   -1.5780    7.3650 C   0  0  0  0  0  0  0  0  0  0  0  0
   21.4780   -0.8840    6.1330 C   0  0  0  0  0  0  0  0  0  0  0  0
   20.2870   -0.5120    5.5170 C   0  0  0  0  0  0  0  0  0  0  0  0
   15.9510    0.5900    4.4340 C   0  0  0  0  0  0  0  0  0  0  0  0
   23.7660   -0.9370    6.1190 C   0  0  0  0  0  0  0  0  0  0  0  0
   22.7280   -1.9260    7.9410 C   0  0  2  0  0  0  0  0  0  0  0  0
   23.8880   -3.6130    9.2690 C   0  0  0  0  0  0  0  0  0  0  0  0
   24.9370   -3.1240   10.2820 C   0  0  0  0  0  0  0  0  0  0  0  0
   23.3170   -1.5300   11.2790 C   0  0  0  0  0  0  0  0  0  0  0  0
   22.2220   -2.0750   10.3610 C   0  0  2  0  0  0  0  0  0  0  0  0
   21.4710   -3.2370   11.0330 C   0  0  0  0  0  0  0  0  0  0  0  0
   24.5260   -3.0750   12.7340 C   0  0  1  0  0  0  0  0  0  0  0  0
   25.4510   -4.1970   12.9480 C   0  0  0  0  0  0  0  0  0  0  0  0
   25.9250   -4.5220   14.1660 C   0  0  0  0  0  0  0  0  0  0  0  0
   26.8000   -5.7030   14.3150 C   0  0  2  0  0  0  0  0  0  0  0  0
   26.3420   -6.9340   13.8120 C   0  0  0  0  0  0  0  0  0  0  0  0
   27.1180   -8.0720   13.9470 C   0  0  0  0  0  0  0  0  0  0  0  0
   28.3390   -8.0000   14.5950 C   0  0  0  0  0  0  0  0  0  0  0  0
   28.7800   -6.7850   15.1150 C   0  0  0  0  0  0  0  0  0  0  0  0
   28.0230   -5.6510   14.9830 C   0  0  0  0  0  0  0  0  0  0  0  0
   28.4750   -4.3320   15.5350 C   0  0  0  0  0  0  0  0  0  0  0  0
   30.5470   -5.3830   16.2280 C   0  0  0  0  0  0  0  0  0  0  0  0
   30.1160   -6.7840   15.8040 C   0  0  0  0  0  0  0  0  0  0  0  0
   26.1330   -0.9430    6.0220 C   0  0  0  0  0  0  0  0  0  0  0  0
   27.2040   -0.3380    5.1230 C   0  0  2  0  0  0  0  0  0  0  0  0
   28.5870   -0.7510    5.6540 C   0  0  0  0  0  0  0  0  0  0  0  0
   28.9150   -1.9730    4.7560 C   0  0  0  0  0  0  0  0  0  0  0  0
   28.3620   -1.4900    3.3890 C   0  0  0  0  0  0  0  0  0  0  0  0
   26.7010    0.2170    2.8500 C   0  0  0  0  0  0  0  0  0  0  0  0
   27.2790    1.4720    3.4890 C   0  0  0  0  0  0  0  0  0  0  0  0
   27.8150    2.5140    2.8970 C   0  0  0  0  0  0  0  0  0  0  0  0
   27.0650    1.2000    4.9860 C   0  0  0  0  0  0  0  0  0  0  0  0
   16.1320    2.2360    6.8270 F   0  0  0  0  0  0  0  0  0  0  0  0
   18.1770    1.4120    7.2310 F   0  0  0  0  0  0  0  0  0  0  0  0
   20.3300    0.1450    4.3360 F   0  0  0  0  0  0  0  0  0  0  0  0
   17.8830    2.7960    5.4410 F   0  0  0  0  0  0  0  0  0  0  0  0
   22.6390   -0.5750    5.5570 N   0  0  0  0  0  0  0  0  0  0  0  0
   23.8310   -1.6050    7.2650 N   0  0  0  0  0  0  0  0  0  0  0  0
   22.7970   -2.6400    9.1250 N   0  0  0  0  0  0  0  0  0  0  0  0
   24.2720   -2.6080   11.4820 N   0  0  0  0  0  0  0  0  0  0  0  0
   29.3900   -4.5640   16.6620 N   0  0  0  0  0  0  0  0  0  0  0  0
   17.6010   -1.5430    4.5590 N   0  0  0  0  0  0  0  0  0  0  0  0
   27.0640   -0.8930    3.7560 N   0  0  0  0  0  0  0  0  0  0  0  0
   16.4240   -2.7410    2.9330 N   0  0  0  0  0  0  0  0  0  0  0  0
   23.9050   -2.6250   13.6950 O   0  0  0  0  0  0  0  0  0  0  0  0
   24.8810   -0.5870    5.4590 O   0  0  0  0  0  0  0  0  0  0  0  0
   17.5280   -1.9290    8.0600 Cl  0  0  0  0  0  0  0  0  0  0  0  0
  4  3  1  0
  5  4  1  0
  6  3  1  6
  7  6  1  0
  7  2  1  0
  8  1  1  0
 10  2  1  0
 11 10  1  0
 12 11  1  0
 12  6  1  0
 13  9  1  0
 13  8  1  0
 13  4  1  0
 15 10  1  0
 17 16  1  0
 19 18  1  0
 19 20  1  1
 22 21  1  0
 23 22  1  0
 24 23  1  1
 25 24  1  0
 26 25  1  0
 27 26  1  0
 28 27  1  0
 29 24  1  0
 29 28  1  0
 30 29  1  0
 32 28  1  0
 32 31  1  0
 34 33  1  1
 35 34  1  0
 36 35  1  0
 37 36  1  0
 39 38  1  0
 40 39  1  0
 41 34  1  0
 41 39  1  0
  5 42  1  1
 43  5  1  0
 44 12  1  0
 45  5  1  0
 46 11  1  0
 46 14  1  0
 47 15  1  0
 47 14  1  0
 48 19  1  0
 48 16  1  0
 15 48  1  6
 49 17  1  0
 49 21  1  0
 49 18  1  0
 50 31  1  0
 50 30  1  0
 51  3  1  0
 51  1  1  0
 52 38  1  0
 52 34  1  0
 52 37  1  0
 53  1  1  0
 21 54  1  6
 55 33  1  0
 55 14  1  0
 56  7  1  0
M  END
$$$$

     RDKit          3D

 32 36  0  0  0  0  0  0  0  0999 V2000
   15.3690   -0.2140    4.0240 C   0  0  0  0  0  0  0  0  0  0  0  0
   18.1170    1.6820    5.8820 C   0  0  0  0  0  0  0  0  0  0  0  0
   22.6610   -2.3020    8.0080 C   0  0  1  0  0  0  0  0  0  0  0  0
   21.9290   -2.5320   10.4730 C   0  0  0  0  0  0  0  0  0  0  0  0
   24.6350   -4.6190   13.8730 C   0  0  0  0  0  0  0  0  0  0  0  0
   17.4360   -2.1700    8.2660 Cl  0  0  0  0  0  0  0  0  0  0  0  0
   18.9770   -1.8310    7.4770 C   0  0  0  0  0  0  0  0  0  0  0  0
   18.9870   -1.2060    6.2350 C   0  0  0  0  0  0  0  0  0  0  0  0
   17.6980   -0.7910    5.4810 C   0  0  0  0  0  0  0  0  0  0  0  0
   16.9210   -1.8520    4.9260 C   0  0  0  0  0  0  0  0  0  0  0  0
   17.0570   -3.2790    4.9220 C   0  0  0  0  0  0  0  0  0  0  0  0
   16.0380   -3.7830    4.2420 N   0  0  0  0  0  0  0  0  0  0  0  0
   15.2660   -2.7680    3.8240 N   0  0  0  0  0  0  0  0  0  0  0  0
   15.7660   -1.5670    4.2090 C   0  0  0  0  0  0  0  0  0  0  0  0
   16.1330    0.8170    4.5790 C   0  0  0  0  0  0  0  0  0  0  0  0
   17.3040    0.5390    5.2920 C   0  0  0  0  0  0  0  0  0  0  0  0
   20.2110   -0.9710    5.6320 C   0  0  0  0  0  0  0  0  0  0  0  0
   20.2880   -0.3460    4.4300 F   0  0  0  0  0  0  0  0  0  0  0  0
   21.4200   -1.3500    6.2530 C   0  0  0  0  0  0  0  0  0  0  0  0
   22.6250   -1.0930    5.6420 N   0  0  0  0  0  0  0  0  0  0  0  0
   23.8010   -1.4610    6.1940 C   0  0  0  0  0  0  0  0  0  0  0  0
   23.7910   -2.0760    7.3920 N   0  0  0  0  0  0  0  0  0  0  0  0
   22.8090   -2.8780    9.3100 N   0  0  0  0  0  0  0  0  0  0  0  0
   22.8120   -2.0830   11.6040 C   0  0  0  0  0  0  0  0  0  0  0  0
   23.5440   -3.1980   12.0470 N   0  0  0  0  0  0  0  0  0  0  0  0
   23.8530   -3.3590   13.4520 C   0  0  0  0  0  0  0  0  0  0  0  0
   25.9690   -4.2080   14.4710 C   0  0  0  0  0  0  0  0  0  0  0  0
   23.4920   -2.5020   14.2250 O   0  0  0  0  0  0  0  0  0  0  0  0
   23.9390   -4.1710   11.0680 C   0  0  0  0  0  0  0  0  0  0  0  0
   24.0160   -3.6390    9.6640 C   0  0  0  0  0  0  0  0  0  0  0  0
   21.4110   -1.9450    7.4740 C   0  0  1  0  0  0  0  0  0  0  0  0
   20.1610   -2.2140    8.0870 C   0  0  0  0  0  0  0  0  0  0  0  0
  7  6  1  0
  8  7  1  0
  9  8  1  0
 10  9  1  0
 11 10  1  0
 12 11  1  0
 13 12  1  0
 14 13  1  0
 14  1  1  0
 14 10  1  0
 15  1  1  0
 16 15  1  0
 16  9  1  0
 16  2  1  0
 17  8  1  0
 18 17  1  0
 19 17  1  0
 20 19  1  0
 21 20  1  0
 22 21  1  0
 22  3  1  0
 23  4  1  0
  3 23  1  1
 24  4  1  0
 25 24  1  0
 26 25  1  0
 26  5  1  0
 27  5  1  0
 28 26  1  0
 29 25  1  0
 30 23  1  0
 30 29  1  0
 31 19  1  0
 31  3  1  0
 31 32  1  6
 32  7  1  0
M  END
$$$$

     RDKit          3D

 43 49  0  0  0  0  0  0  0  0999 V2000
   16.0290    1.6360    3.5600 C   0  0  0  0  0  0  0  0  0  0  0  0
   15.1500    0.7250    3.0070 C   0  0  0  0  0  0  0  0  0  0  0  0
   20.0410   -1.3520    6.7990 C   0  0  0  0  0  0  0  0  0  0  0  0
   16.7470   -2.3990    3.4820 C   0  0  0  0  0  0  0  0  0  0  0  0
   21.2000   -1.5500    6.0740 C   0  0  1  0  0  0  0  0  0  0  0  0
   16.7450   -0.9890    3.6490 C   0  0  0  0  0  0  0  0  0  0  0  0
   17.6150   -0.0600    4.2150 C   0  0  0  0  0  0  0  0  0  0  0  0
   18.8550   -0.5230    4.8730 C   0  0  0  0  0  0  0  0  0  0  0  0
   17.2250    1.2620    4.1560 C   0  0  0  0  0  0  0  0  0  0  0  0
   21.1970   -1.1310    4.7560 C   0  0  0  0  0  0  0  0  0  0  0  0
   15.5430   -0.5880    3.0650 C   0  0  0  0  0  0  0  0  0  0  0  0
   20.0360   -0.6370    4.1750 C   0  0  0  0  0  0  0  0  0  0  0  0
   18.8860   -0.8820    6.2040 C   0  0  0  0  0  0  0  0  0  0  0  0
   22.3900   -1.9770    6.6550 C   0  0  0  0  0  0  0  0  0  0  0  0
   23.3870   -1.5670    4.7050 C   0  0  1  0  0  0  0  0  0  0  0  0
   25.7650   -4.1950   14.6110 C   0  0  0  0  0  0  0  0  0  0  0  0
   24.3890   -4.6500   14.1490 C   0  0  0  0  0  0  0  0  0  0  0  0
   23.6170   -3.3570   13.9250 C   0  0  0  0  0  0  0  0  0  0  0  0
   26.2640   -0.5760    5.3120 C   0  0  0  0  0  0  0  0  0  0  0  0
   26.8510   -1.4590    3.0250 C   0  0  0  0  0  0  0  0  0  0  0  0
   21.3090   -2.8230   10.0310 C   0  0  0  0  0  0  0  0  0  0  0  0
   23.6760   -1.9050    9.9260 C   0  0  0  0  0  0  0  0  0  0  0  0
   26.9780    0.7380    5.0720 C   0  0  0  0  0  0  0  0  0  0  0  0
   27.7420   -0.2400    2.8360 C   0  0  0  0  0  0  0  0  0  0  0  0
   21.5480   -3.0980    8.6320 C   0  0  0  0  0  0  0  0  0  0  0  0
   23.9400   -2.8470    8.6360 C   0  0  0  0  0  0  0  0  0  0  0  0
   23.1890   -3.9360   11.4170 C   0  0  0  0  0  0  0  0  0  0  0  0
   22.3070   -2.0920   12.1220 C   0  0  0  0  0  0  0  0  0  0  0  0
   25.7650   -1.0860    3.9500 C   0  0  1  0  0  0  0  0  0  0  0  0
   22.6250   -2.6700   10.7490 C   0  0  2  0  0  0  0  0  0  0  0  0
   18.1190    2.2910    4.7540 C   0  0  0  0  0  0  0  0  0  0  0  0
   28.0900    2.1620    3.2770 C   0  0  0  0  0  0  0  0  0  0  0  0
   15.6490   -2.8330    2.8540 N   0  0  0  0  0  0  0  0  0  0  0  0
   22.3040   -1.2230    4.0230 N   0  0  0  0  0  0  0  0  0  0  0  0
   23.4910   -1.9290    5.9760 N   0  0  0  0  0  0  0  0  0  0  0  0
   14.9320   -1.7260    2.6130 N   0  0  0  0  0  0  0  0  0  0  0  0
   22.6530   -2.4770    7.9370 N   0  0  0  0  0  0  0  0  0  0  0  0
   23.0840   -3.1940   12.6660 N   0  0  0  0  0  0  0  0  0  0  0  0
   27.2990    0.9520    3.6190 N   0  0  0  0  0  0  0  0  0  0  0  0
   24.4850   -1.6070    3.9720 N   0  0  0  0  0  0  0  0  0  0  0  0
   23.4990   -2.5460   14.8240 O   0  0  0  0  0  0  0  0  0  0  0  0
   20.0370   -0.2410    2.8920 F   0  0  0  0  0  0  0  0  0  0  0  0
   17.4900   -0.7450    7.1960 Cl  0  0  0  0  0  0  0  0  0  0  0  0
  2  1  1  0
  5  3  1  1
  6  4  1  0
  7  6  1  0
  8  7  1  0
  9  1  1  0
  9  7  1  0
 10  5  1  0
 11  2  1  0
 11  6  1  0
 12 10  1  0
 12  8  1  0
 13  8  1  0
 13  3  1  0
 14  5  1  0
 17 16  1  0
 18 17  1  0
 23 19  1  0
 24 20  1  0
 25 21  1  0
 26 22  1  0
 29 20  1  0
 29 19  1  0
 30 21  1  6
 30 22  1  0
 30 28  1  0
 30 27  1  0
 31  9  1  0
 33  4  1  0
 34 10  1  0
 34 15  1  0
 35 15  1  0
 35 14  1  0
 36 33  1  0
 36 11  1  0
 37 25  1  0
 37 26  1  0
 37 14  1  0
 38 28  1  0
 38 27  1  0
 38 18  1  0
 39 23  1  0
 39 32  1  0
 39 24  1  0
 29 40  1  1
 15 40  1  6
 41 18  1  0
 42 12  1  0
 43 13  1  0
M  END
$$$$

     RDKit          3D

 25 28  0  0  0  0  0  0  0  0999 V2000
   17.9590    0.0940    6.1610 C   0  0  1  0  0  0  0  0  0  0  0  0
   16.3100   -1.9900    3.4700 C   0  0  0  0  0  0  0  0  0  0  0  0
   18.2250   -2.6990    4.8420 C   0  0  0  0  0  0  0  0  0  0  0  0
   15.6550    1.6370    4.8590 C   0  0  0  0  0  0  0  0  0  0  0  0
   19.3960   -0.1000    5.8840 C   0  0  0  0  0  0  0  0  0  0  0  0
   21.3780   -0.6600    5.9110 C   0  0  0  0  0  0  0  0  0  0  0  0
   22.5660   -2.2350    7.4050 C   0  0  0  0  0  0  0  0  0  0  0  0
   23.7180   -2.8770    7.8250 C   0  0  0  0  0  0  0  0  0  0  0  0
   24.9410   -2.6220    7.1990 C   0  0  0  0  0  0  0  0  0  0  0  0
   23.8130   -1.0770    5.7220 C   0  0  0  0  0  0  0  0  0  0  0  0
   17.1200   -0.4360    5.0230 C   0  0  1  0  0  0  0  0  0  0  0  0
   16.2030    1.9450    6.2440 C   0  0  0  0  0  0  0  0  0  0  0  0
   17.6610   -0.6340    7.4800 C   0  0  0  0  0  0  0  0  0  0  0  0
   22.6010   -1.3280    6.3500 C   0  0  0  0  0  0  0  0  0  0  0  0
   17.2170   -1.7460    4.4920 C   0  0  1  0  0  0  0  0  0  0  0  0
   24.9650   -1.7250    6.1270 C   0  0  0  0  0  0  0  0  0  0  0  0
   16.1070    0.2690    4.4500 C   0  0  0  0  0  0  0  0  0  0  0  0
   17.6870    1.6140    6.2950 C   0  0  0  0  0  0  0  0  0  0  0  0
   16.1450   -3.1100    2.7460 N   0  0  0  0  0  0  0  0  0  0  0  0
   19.0590   -3.4470    5.0730 N   0  0  0  0  0  0  0  0  0  0  0  0
   21.3410    0.2060    4.9340 N   0  0  0  0  0  0  0  0  0  0  0  0
   20.1810   -0.8700    6.5400 N   0  0  0  0  0  0  0  0  0  0  0  0
   26.0920   -3.2680    7.6040 N   0  0  0  0  0  0  0  0  0  0  0  0
   19.9730    0.5780    4.8870 O   0  0  0  0  0  0  0  0  0  0  0  0
   15.3180   -0.6060    3.1930 S   0  0  0  0  0  0  0  0  0  0  0  0
  5  1  1  0
  8  7  1  0
  9  8  1  0
 11  1  1  0
 12  4  1  0
  1 13  1  1
 14  6  1  0
 14 10  1  0
 14  7  1  0
 15  2  1  0
 15 11  1  0
 15  3  1  6
 16 10  1  0
 16  9  1  0
 17  4  1  0
 11 17  1  1
 18 12  1  0
 18  1  1  0
 19  2  1  0
 20  3  1  0
 21  6  1  0
 22  6  1  0
 22  5  1  0
 23  9  1  0
 24 21  1  0
 24  5  1  0
 25 17  1  0
 25  2  1  0
M  END
$$$$

     RDKit          3D

 43 48  0  0  0  0  0  0  0  0999 V2000
   23.6020   -2.2940    7.3080 N   0  0  0  0  0  0  0  0  0  0  0  0
   23.7830   -4.6060   10.6660 C   0  0  0  0  0  0  0  0  0  0  0  0
   23.9300   -3.8150    9.4120 C   0  0  0  0  0  0  0  0  0  0  0  0
   23.6510   -3.5090   12.9640 C   0  0  1  0  0  0  0  0  0  0  0  0
   21.5770   -3.3190    9.9230 C   0  0  0  0  0  0  0  0  0  0  0  0
   22.1990   -2.7200   11.1890 C   0  0  1  0  0  0  0  0  0  0  0  0
   22.5460   -1.2080    5.5160 N   0  0  0  0  0  0  0  0  0  0  0  0
   20.1160   -1.4490    5.0660 C   0  0  0  0  0  0  0  0  0  0  0  0
   19.0260   -3.3050    6.2250 C   0  0  0  0  0  0  0  0  0  0  0  0
   16.5140   -2.5770    2.8920 C   0  0  0  0  0  0  0  0  0  0  0  0
   19.9390   -3.1660    7.4460 C   0  0  0  0  0  0  0  0  0  0  0  0
   22.4580   -2.8000    7.7270 C   0  0  0  0  0  0  0  0  0  0  0  0
   21.2640   -2.5320    7.0230 C   0  0  1  0  0  0  0  0  0  0  0  0
   23.6290   -1.5180    6.2200 C   0  0  0  0  0  0  0  0  0  0  0  0
   24.5210   -4.5790   13.6040 C   0  0  2  0  0  0  0  0  0  0  0  0
   17.8200   -1.7330    4.7980 C   0  0  0  0  0  0  0  0  0  0  0  0
   17.5630   -2.7430    3.8270 C   0  0  0  0  0  0  0  0  0  0  0  0
   21.3570   -1.7310    5.8880 C   0  0  0  0  0  0  0  0  0  0  0  0
   18.9050   -1.9470    5.7280 N   0  0  0  0  0  0  0  0  0  0  0  0
   22.5470   -3.5930    8.8990 N   0  0  0  0  0  0  0  0  0  0  0  0
   23.2900   -3.5990   11.6570 N   0  0  0  0  0  0  0  0  0  0  0  0
   23.2000   -2.5750   13.6270 O   0  0  0  0  0  0  0  0  0  0  0  0
   15.7540   -1.3910    2.9550 C   0  0  0  0  0  0  0  0  0  0  0  0
   16.0440   -0.3900    3.9080 C   0  0  0  0  0  0  0  0  0  0  0  0
   17.0830   -0.5320    4.8470 C   0  0  0  0  0  0  0  0  0  0  0  0
   15.2590    0.7550    3.8960 C   0  0  0  0  0  0  0  0  0  0  0  0
   15.4650    1.8070    4.7950 C   0  0  0  0  0  0  0  0  0  0  0  0
   16.4890    1.6710    5.7370 C   0  0  0  0  0  0  0  0  0  0  0  0
   17.2860    0.5220    5.7670 C   0  0  0  0  0  0  0  0  0  0  0  0
   24.8380   -0.9970    5.7730 O   0  0  0  0  0  0  0  0  0  0  0  0
   26.0500   -1.4580    6.2660 C   0  0  0  0  0  0  0  0  0  0  0  0
   27.1830   -0.8970    5.3410 C   0  0  1  0  0  0  0  0  0  0  0  0
   27.0010   -1.6030    4.0230 N   0  0  0  0  0  0  0  0  0  0  0  0
   26.8990   -0.6160    2.8590 C   0  0  0  0  0  0  0  0  0  0  0  0
   27.0440    0.7590    3.4980 C   0  0  0  0  0  0  0  0  0  0  0  0
   27.0230    0.5710    5.0160 C   0  0  0  0  0  0  0  0  0  0  0  0
   28.2800   -2.3950    3.8250 C   0  0  0  0  0  0  0  0  0  0  0  0
   22.7280   -1.2810   10.9430 C   0  0  0  0  0  0  0  0  0  0  0  0
   25.8530   -3.9760   14.0650 C   0  0  0  0  0  0  0  0  0  0  0  0
   21.5660   -0.4090   10.6680 C   0  0  0  0  0  0  0  0  0  0  0  0
   20.6030    0.2000   10.4030 N   0  0  0  0  0  0  0  0  0  0  0  0
   18.4600    0.5420    7.0520 Cl  0  0  0  0  0  0  0  0  0  0  0  0
   24.7190   -5.6740   12.8500 F   0  0  0  0  0  0  0  0  0  0  0  0
  3  2  1  0
  6  5  1  0
 11  9  1  0
 12  1  1  0
 13 11  1  6
 13 12  1  0
 14  7  1  0
 14  1  1  0
 15  4  1  0
 17 16  1  0
 17 10  1  0
 18  8  1  0
 18 13  1  0
 18  7  1  0
 19 16  1  0
 19  8  1  0
 19  9  1  0
 20  5  1  0
 20 12  1  0
 20  3  1  0
 21  2  1  0
 21  6  1  0
 21  4  1  0
  4 22  1  1
 23 10  1  0
 24 23  1  0
 25 24  1  0
 25 16  1  0
 26 24  1  0
 27 26  1  0
 28 27  1  0
 29 25  1  0
 29 28  1  0
 30 14  1  0
 31 30  1  0
 32 31  1  1
 33 32  1  0
 34 33  1  0
 35 34  1  0
 36 35  1  0
 36 32  1  0
 37 33  1  0
  6 38  1  6
 15 39  1  6
 40 38  1  0
 41 40  1  0
 42 29  1  0
 43 15  1  0
M  END
$$$$

     RDKit          3D

 33 37  0  0  0  0  0  0  0  0999 V2000
   27.8930    1.0470    2.2090 C   0  0  0  0  0  0  0  0  0  0  0  0
   27.1980    0.1750    1.2210 C   0  0  0  0  0  0  0  0  0  0  0  0
   27.6360   -1.1990    1.6190 C   0  0  0  0  0  0  0  0  0  0  0  0
   26.4620    0.5640    4.3030 C   0  0  2  0  0  0  0  0  0  0  0  0
   24.1260   -0.3240    5.3840 N   0  0  0  0  0  0  0  0  0  0  0  0
   25.2470   -0.8680    5.8340 C   0  0  0  0  0  0  0  0  0  0  0  0
   15.8070    1.5610    4.9550 C   0  0  0  0  0  0  0  0  0  0  0  0
   17.8190    1.5740    6.4060 C   0  0  0  0  0  0  0  0  0  0  0  0
   17.3140   -0.4790    5.0700 C   0  0  0  0  0  0  0  0  0  0  0  0
   17.4660   -1.7770    4.4770 C   0  0  0  0  0  0  0  0  0  0  0  0
   16.5220   -2.0440    3.5000 C   0  0  0  0  0  0  0  0  0  0  0  0
   18.0190   -0.7350    7.4380 C   0  0  0  0  0  0  0  0  0  0  0  0
   21.6690   -0.2670    5.6140 C   0  0  0  0  0  0  0  0  0  0  0  0
   29.1290   -1.8580    3.5230 C   0  0  0  0  0  0  0  0  0  0  0  0
   22.9960   -0.7790    5.9350 C   0  0  2  0  0  0  0  0  0  0  0  0
   25.3010   -1.8400    6.8350 C   0  0  0  0  0  0  0  0  0  0  0  0
   16.3280    1.8630    6.3350 C   0  0  0  0  0  0  0  0  0  0  0  0
   18.1910    0.0870    6.1550 C   0  0  2  0  0  0  0  0  0  0  0  0
   16.2520    0.1870    4.5570 C   0  0  0  0  0  0  0  0  0  0  0  0
   19.6320    0.0600    5.7530 C   0  0  0  0  0  0  0  0  0  0  0  0
   27.7580    0.2980    3.5340 C   0  0  1  0  0  0  0  0  0  0  0  0
   18.4740   -2.7360    4.7840 C   0  0  0  0  0  0  0  0  0  0  0  0
   26.4300    1.9330    4.9420 C   0  0  0  0  0  0  0  0  0  0  0  0
   24.0750   -2.2040    7.3470 C   0  0  0  0  0  0  0  0  0  0  0  0
   22.9150   -1.6900    6.9300 N   0  0  0  0  0  0  0  0  0  0  0  0
   27.8790   -1.1520    3.1030 N   0  0  1  0  0  0  0  0  0  0  0  0
   21.4440    0.5680    4.6320 N   0  0  0  0  0  0  0  0  0  0  0  0
   20.5560   -0.5990    6.3440 N   0  0  0  0  0  0  0  0  0  0  0  0
   16.3890   -3.1750    2.7490 N   0  0  0  0  0  0  0  0  0  0  0  0
   19.2730   -3.5360    4.9570 N   0  0  0  0  0  0  0  0  0  0  0  0
   20.0410    0.8030    4.7210 O   0  0  0  0  0  0  0  0  0  0  0  0
   26.4390   -0.4770    5.3240 O   0  0  0  0  0  0  0  0  0  0  0  0
   15.4360   -0.7180    3.3060 S   0  0  0  0  0  0  0  0  0  0  0  0
  2  1  1  0
  3  2  1  0
  6  5  1  0
 10  9  1  0
 11 10  1  0
 15 13  1  1
 15  5  1  0
 16  6  1  0
 17  7  1  0
 17  8  1  0
 18  9  1  0
 18 12  1  1
 18  8  1  0
 19  7  1  0
 19  9  1  0
 20 18  1  0
 21  4  1  0
 21  1  1  6
 22 10  1  0
  4 23  1  1
 24 16  1  0
 25 24  1  0
 25 15  1  0
 26 21  1  0
 26 14  1  6
 26  3  1  0
 27 13  1  0
 28 20  1  0
 28 13  1  0
 29 11  1  0
 30 22  1  0
 31 27  1  0
 31 20  1  0
 32  4  1  0
 32  6  1  0
 33 19  1  0
 33 11  1  0
M  CHG  1  26   1
M  END
$$$$

     RDKit          3D

 47 53  0  0  0  0  0  0  0  0999 V2000
   18.0320   -1.6710    4.7450 C   0  0  2  0  0  0  0  0  0  0  0  0
   21.7180   -1.4320    5.5730 C   0  0  0  0  0  0  0  0  0  0  0  0
   21.8800   -2.4130    6.4810 C   0  0  0  0  0  0  0  0  0  0  0  0
   20.7290   -3.2030    6.8600 C   0  0  0  0  0  0  0  0  0  0  0  0
   19.3180   -2.0030    5.5030 C   0  0  2  0  0  0  0  0  0  0  0  0
   20.3990   -1.2200    5.0280 C   0  0  1  0  0  0  0  0  0  0  0  0
   17.4440    0.5150    5.7940 C   0  0  2  0  0  0  0  0  0  0  0  0
   16.6040    1.6490    5.8360 C   0  0  0  0  0  0  0  0  0  0  0  0
   15.5640    1.7680    4.9160 C   0  0  0  0  0  0  0  0  0  0  0  0
   15.3590    0.7930    3.9820 C   0  0  0  0  0  0  0  0  0  0  0  0
   16.2060   -0.3710    3.9470 C   0  0  0  0  0  0  0  0  0  0  0  0
   15.9350   -1.3470    2.9530 C   0  0  0  0  0  0  0  0  0  0  0  0
   16.7200   -2.4690    2.8400 C   0  0  0  0  0  0  0  0  0  0  0  0
   17.7760   -2.6140    3.7420 C   0  0  0  0  0  0  0  0  0  0  0  0
   23.2040   -2.6180    6.9970 C   0  0  0  0  0  0  0  0  0  0  0  0
   24.7360   -4.4830    8.0280 C   0  0  0  0  0  0  0  0  0  0  0  0
   25.4840   -4.0740    9.2900 C   0  0  0  0  0  0  0  0  0  0  0  0
   25.1530   -5.2490   11.5570 C   0  0  2  0  0  0  0  0  0  0  0  0
   26.5010   -6.0500   11.5480 C   0  0  2  0  0  0  0  0  0  0  0  0
   27.4350   -4.9790   12.0280 C   0  0  0  0  0  0  0  0  0  0  0  0
   28.4980   -4.2910   11.0900 C   0  0  0  0  0  0  0  0  0  0  0  0
   23.4350   -3.5560   10.5100 C   0  0  1  0  0  0  0  0  0  0  0  0
   23.5790   -2.0110   10.5880 C   0  0  0  0  0  0  0  0  0  0  0  0
   22.2630   -1.1380   10.6080 C   0  0  0  0  0  0  0  0  0  0  0  0
   22.6440   -3.9070    9.2380 C   0  0  0  0  0  0  0  0  0  0  0  0
   24.0350   -0.9060    5.6670 C   0  0  0  0  0  0  0  0  0  0  0  0
   26.3870   -0.6810    5.3140 C   0  0  0  0  0  0  0  0  0  0  0  0
   27.3430    0.0950    4.3300 C   0  0  1  0  0  0  0  0  0  0  0  0
   26.5940    0.6550    2.1930 C   0  0  0  0  0  0  0  0  0  0  0  0
   27.2220    1.8390    2.9100 C   0  0  0  0  0  0  0  0  0  0  0  0
   27.1280    1.4000    4.3710 C   0  0  0  0  0  0  0  0  0  0  0  0
   28.2030   -1.5240    2.6580 C   0  0  0  0  0  0  0  0  0  0  0  0
   29.1780   -1.5240    4.0710 C   0  0  0  0  0  0  0  0  0  0  0  0
   28.8810   -0.2560    4.7400 C   0  0  0  0  0  0  0  0  0  0  0  0
   17.2450   -0.4970    4.8290 C   0  0  0  0  0  0  0  0  0  0  0  0
   20.3180   -0.1800    4.1290 F   0  0  0  0  0  0  0  0  0  0  0  0
   19.5220   -2.9890    6.3510 N   0  0  0  0  0  0  0  0  0  0  0  0
   23.4830   -3.6320    8.0060 N   0  0  0  0  0  0  0  0  0  0  0  0
   24.6980   -4.2650   10.4530 N   0  0  0  0  0  0  0  0  0  0  0  0
   21.2990   -0.4250   10.6430 N   0  0  0  0  0  0  0  0  0  0  0  0
   24.2250   -1.8680    6.5790 N   0  0  0  0  0  0  0  0  0  0  0  0
   27.1390   -0.3840    2.8400 N   0  0  0  0  0  0  0  0  0  0  0  0
   22.7880   -0.6700    5.1730 N   0  0  0  0  0  0  0  0  0  0  0  0
   26.8540   -6.6230   10.3330 O   0  0  0  0  0  0  0  0  0  0  0  0
   24.4530   -5.3580   12.5190 O   0  0  0  0  0  0  0  0  0  0  0  0
   25.1150   -0.0800    5.1980 O   0  0  0  0  0  0  0  0  0  0  0  0
   18.6660    0.4390    7.0850 Cl  0  0  0  0  0  0  0  0  0  0  0  0
  3  2  1  0
  4  3  1  0
  5  1  1  0
  6  5  1  0
  6  2  1  0
  8  7  1  0
  9  8  1  0
 10  9  1  0
 11 10  1  0
 12 11  1  0
 13 12  1  0
 14 13  1  0
  1 14  1  6
 15  3  1  0
 17 16  1  0
 19 18  1  0
 20 19  1  0
 21 20  1  0
 22 23  1  6
 24 23  1  0
 25 22  1  0
 28 27  1  1
 30 29  1  0
 31 30  1  0
 31 28  1  0
 33 32  1  0
 34 33  1  0
 34 28  1  0
 35 11  1  0
 35  1  1  0
 35  7  1  0
  6 36  1  1
  5 37  1  6
 37  4  1  0
 38 25  1  0
 38 16  1  0
 38 15  1  0
 39 22  1  0
 39 17  1  0
 39 18  1  0
 40 24  1  0
 41 26  1  0
 41 15  1  0
 42 29  1  0
 42 32  1  0
 42 28  1  0
 43  2  1  0
 43 26  1  0
 19 44  1  6
 18 45  1  1
 46 27  1  0
 46 26  1  0
  7 47  1  1
M  END
$$$$

     RDKit          3D

 36 41  0  0  0  0  0  0  0  0999 V2000
   18.3310   -1.4060    4.9240 C   0  0  2  0  0  0  0  0  0  0  0  0
   20.9940   -2.9060    7.4690 C   0  0  0  0  0  0  0  0  0  0  0  0
   22.0830   -1.4310    5.7400 C   0  0  0  0  0  0  0  0  0  0  0  0
   26.7330   -0.6470    5.3490 C   0  0  0  0  0  0  0  0  0  0  0  0
   27.7920    0.2720    4.5890 C   0  0  2  0  0  0  0  0  0  0  0  0
   27.3440    1.5360    4.4350 C   0  0  0  0  0  0  0  0  0  0  0  0
   27.4540    0.7570    2.2500 C   0  0  0  0  0  0  0  0  0  0  0  0
   27.9580   -1.1860    3.0460 C   0  0  0  0  0  0  0  0  0  0  0  0
   23.5530   -2.2840    7.3640 C   0  0  0  0  0  0  0  0  0  0  0  0
   18.7700    0.8780    7.0120 C   0  0  0  0  0  0  0  0  0  0  0  0
   17.6890    0.8580    6.0270 C   0  0  0  0  0  0  0  0  0  0  0  0
   16.8250    1.9400    6.0650 C   0  0  0  0  0  0  0  0  0  0  0  0
   15.7600    2.0240    5.1890 C   0  0  0  0  0  0  0  0  0  0  0  0
   15.5590    1.0160    4.2490 C   0  0  0  0  0  0  0  0  0  0  0  0
   16.4300   -0.0880    4.1940 C   0  0  0  0  0  0  0  0  0  0  0  0
   16.1570   -1.1130    3.2020 C   0  0  0  0  0  0  0  0  0  0  0  0
   16.9790   -2.2540    3.0830 C   0  0  0  0  0  0  0  0  0  0  0  0
   18.0570   -2.3950    3.9240 C   0  0  0  0  0  0  0  0  0  0  0  0
   19.7270   -2.9000    6.4800 C   0  0  0  0  0  0  0  0  0  0  0  0
   22.2350   -2.1670    6.8180 C   0  0  0  0  0  0  0  0  0  0  0  0
   20.7620   -1.2270    5.0450 C   0  0  0  0  0  0  0  0  0  0  0  0
   24.3250   -0.9110    5.6670 C   0  0  0  0  0  0  0  0  0  0  0  0
   27.3260    1.8750    2.9150 C   0  0  0  0  0  0  0  0  0  0  0  0
   25.2720   -3.4240    8.8950 C   0  0  0  0  0  0  0  0  0  0  0  0
   25.4510   -4.5730    9.9120 C   0  0  0  0  0  0  0  0  0  0  0  0
   23.2490   -3.9590   10.9170 C   0  0  0  0  0  0  0  0  0  0  0  0
   23.1110   -2.8010    9.8800 C   0  0  1  0  0  0  0  0  0  0  0  0
   23.5720   -1.4460   10.4840 C   0  0  0  0  0  0  0  0  0  0  0  0
   17.4890   -0.2010    5.0500 C   0  0  0  0  0  0  0  0  0  0  0  0
   19.5640   -1.6680    5.7500 N   0  0  0  0  0  0  0  0  0  0  0  0
   23.1190   -0.7900    5.1480 N   0  0  0  0  0  0  0  0  0  0  0  0
   28.1780   -0.1880    3.2260 N   0  0  0  0  0  0  0  0  0  0  0  0
   24.5470   -1.6460    6.7530 N   0  0  0  0  0  0  0  0  0  0  0  0
   23.8160   -3.1100    8.5820 N   0  0  0  0  0  0  0  0  0  0  0  0
   24.4550   -4.7420   10.9150 N   0  0  0  0  0  0  0  0  0  0  0  0
   25.3970   -0.2220    5.0150 O   0  0  0  0  0  0  0  0  0  0  0  0
  5  4  1  6
  6  5  1  0
 11 10  1  0
 12 11  1  0
 13 12  1  0
 14 13  1  0
 15 14  1  0
 16 15  1  0
 17 16  1  0
 18 17  1  0
 18  1  1  0
 19  2  1  0
 20  2  1  0
 20  9  1  0
 20  3  1  0
 21  3  1  0
 23  7  1  0
 23  6  1  0
 25 24  1  0
 27 26  1  0
 27 28  1  1
 29 15  1  0
 29  1  1  0
 29 11  1  0
 30 21  1  0
  1 30  1  6
 30 19  1  0
 31 22  1  0
 31  3  1  0
 32  8  1  0
 32  7  1  0
 32  5  1  0
 33 22  1  0
 33  9  1  0
 34 27  1  0
 34 24  1  0
 34  9  1  0
 35 25  1  0
 35 26  1  0
 36  4  1  0
 36 22  1  0
M  END
$$$$

     RDKit          3D

 22 23  0  0  0  0  0  0  0  0999 V2000
   23.5090   -2.1490    6.8910 C   0  0  0  0  0  0  0  0  0  0  0  0
   24.6400   -3.0340    9.1110 N   0  0  0  0  0  0  0  0  0  0  0  0
   24.1950   -1.9030    9.8730 C   0  0  0  0  0  0  0  0  0  0  0  0
   24.8510   -4.3190   14.0830 C   0  0  0  0  0  0  0  0  0  0  0  0
   24.5580   -4.4300   11.0670 C   0  0  0  0  0  0  0  0  0  0  0  0
   25.3820   -3.9700    9.9060 C   0  0  0  0  0  0  0  0  0  0  0  0
   19.9540   -2.1360    9.0670 Cl  0  0  0  0  0  0  0  0  0  0  0  0
   20.0770   -1.1770    7.6420 C   0  0  0  0  0  0  0  0  0  0  0  0
   19.1090   -0.2330    7.3770 C   0  0  0  0  0  0  0  0  0  0  0  0
   19.2090    0.5310    6.2430 C   0  0  0  0  0  0  0  0  0  0  0  0
   17.9910    1.7200    5.9090 Cl  0  0  0  0  0  0  0  0  0  0  0  0
   20.2820    0.3520    5.3690 C   0  0  0  0  0  0  0  0  0  0  0  0
   21.2670   -0.6060    5.6340 C   0  0  0  0  0  0  0  0  0  0  0  0
   21.1700   -1.3560    6.7600 C   0  0  0  0  0  0  0  0  0  0  0  0
   22.1040   -2.3150    7.0640 O   0  0  0  0  0  0  0  0  0  0  0  0
   24.3170   -3.1800    7.6470 C   0  0  0  0  0  0  0  0  0  0  0  0
   23.3770   -2.3200   11.0540 C   0  0  0  0  0  0  0  0  0  0  0  0
   24.0380   -3.3300   11.8360 N   0  0  0  0  0  0  0  0  0  0  0  0
   24.1490   -3.2410   13.2820 C   0  0  0  0  0  0  0  0  0  0  0  0
   25.7540   -3.8770   15.2160 C   0  0  0  0  0  0  0  0  0  0  0  0
   23.6780   -2.2740   13.8590 O   0  0  0  0  0  0  0  0  0  0  0  0
   24.7180   -4.1970    7.0450 O   0  0  0  0  0  0  0  0  0  0  0  0
  3  2  1  0
  6  2  1  0
  6  5  1  0
  8  7  1  0
  9  8  1  0
 10  9  1  0
 11 10  1  0
 12 10  1  0
 13 12  1  0
 14 13  1  0
 14  8  1  0
 15 14  1  0
 15  1  1  0
 16  2  1  0
 16  1  1  0
 17  3  1  0
 18 17  1  0
 18  5  1  0
 19 18  1  0
 19  4  1  0
 20  4  1  0
 21 19  1  0
 22 16  1  0
M  END
$$$$

     RDKit          3D

 46 52  0  0  0  0  0  0  0  0999 V2000
   16.2420    0.4460    3.5450 C   0  0  0  0  0  0  0  0  0  0  0  0
   15.7170   -0.5960    2.8090 C   0  0  0  0  0  0  0  0  0  0  0  0
   20.6390   -1.7140    6.6060 C   0  0  0  0  0  0  0  0  0  0  0  0
   18.1470   -3.1940    2.9150 C   0  0  0  0  0  0  0  0  0  0  0  0
   21.8390   -1.6400    5.9390 C   0  0  0  0  0  0  0  0  0  0  0  0
   17.7130   -1.8840    3.2740 C   0  0  0  0  0  0  0  0  0  0  0  0
   18.2200   -0.8320    4.0140 C   0  0  2  0  0  0  0  0  0  0  0  0
   19.4810   -1.1090    4.6270 C   0  0  0  0  0  0  0  0  0  0  0  0
   19.4630   -1.4460    5.9670 C   0  0  0  0  0  0  0  0  0  0  0  0
   17.4740    0.3360    4.1550 C   0  0  0  0  0  0  0  0  0  0  0  0
   21.8790   -1.3110    4.6110 C   0  0  0  0  0  0  0  0  0  0  0  0
   16.4720   -1.7470    2.6870 C   0  0  0  0  0  0  0  0  0  0  0  0
   20.6740   -1.0600    3.9540 C   0  0  0  0  0  0  0  0  0  0  0  0
   23.0600   -1.8790    6.5370 C   0  0  0  0  0  0  0  0  0  0  0  0
   24.1880   -1.4730    4.6680 C   0  0  0  0  0  0  0  0  0  0  0  0
   18.1210   -0.9310    7.9290 C   0  0  0  0  0  0  0  0  0  0  0  0
   25.8240   -4.2430   14.9510 C   0  0  0  0  0  0  0  0  0  0  0  0
   18.2500   -1.5360    6.7400 C   0  0  0  0  0  0  0  0  0  0  0  0
   24.6440   -4.6380   14.0830 C   0  0  0  0  0  0  0  0  0  0  0  0
   23.6550   -3.4610   13.9440 C   0  0  0  0  0  0  0  0  0  0  0  0
   26.6460    0.3270    5.1680 C   0  0  0  0  0  0  0  0  0  0  0  0
   27.6820   -1.5340    3.8060 C   0  0  0  0  0  0  0  0  0  0  0  0
   21.9730   -3.1650    9.8150 C   0  0  0  0  0  0  0  0  0  0  0  0
   24.2260   -1.9730   10.0030 C   0  0  0  0  0  0  0  0  0  0  0  0
   26.9260    1.2940    4.0300 C   0  0  0  0  0  0  0  0  0  0  0  0
   27.8760   -0.5720    2.6400 C   0  0  0  0  0  0  0  0  0  0  0  0
   21.8940   -2.2830    8.6350 C   0  0  0  0  0  0  0  0  0  0  0  0
   24.3990   -2.4030    8.5550 C   0  0  0  0  0  0  0  0  0  0  0  0
   23.6710   -3.9310   11.4580 C   0  0  0  0  0  0  0  0  0  0  0  0
   22.5770   -2.1640   12.0100 C   0  0  0  0  0  0  0  0  0  0  0  0
   26.5460   -1.1350    4.7310 C   0  0  2  0  0  0  0  0  0  0  0  0
   23.1100   -2.7340   10.6910 C   0  0  2  0  0  0  0  0  0  0  0  0
   17.9450    1.5170    4.9430 C   0  0  0  0  0  0  0  0  0  0  0  0
   20.7940   -1.8260    0.4010 C   0  0  0  0  0  0  0  0  0  0  0  0
   28.5920    1.8020    2.2300 C   0  0  0  0  0  0  0  0  0  0  0  0
   21.1600   -1.8910    1.8720 C   0  0  0  0  0  0  0  0  0  0  0  0
   17.2550   -3.8380    2.1510 N   0  0  0  0  0  0  0  0  0  0  0  0
   23.0620   -1.2380    3.9830 N   0  0  0  0  0  0  0  0  0  0  0  0
   24.2420   -1.8060    5.9390 N   0  0  0  0  0  0  0  0  0  0  0  0
   16.2590   -2.9370    2.0340 N   0  0  0  0  0  0  0  0  0  0  0  0
   23.1300   -2.2140    7.8620 N   0  0  0  0  0  0  0  0  0  0  0  0
   23.1280   -3.3380   12.6770 N   0  0  0  0  0  0  0  0  0  0  0  0
   28.0360    0.8070    3.1790 N   0  0  0  0  0  0  0  0  0  0  0  0
   23.3410   -2.7400   14.8770 O   0  0  0  0  0  0  0  0  0  0  0  0
   20.7030   -0.7330    2.6000 O   0  0  0  0  0  0  0  0  0  0  0  0
   25.3700   -1.3710    3.9460 O   0  0  0  0  0  0  0  0  0  0  0  0
  2  1  1  0
  5  3  1  0
  6  4  1  0
  7  6  1  0
  7  8  1  1
  9  8  1  0
  9  3  1  0
 10  1  1  0
 10  7  1  0
 11  5  1  0
 12  2  1  0
 12  6  1  0
 13  8  1  0
 13 11  1  0
 14  5  1  0
 18 16  1  0
 18  9  1  0
 19 17  1  0
 20 19  1  0
 25 21  1  0
 26 22  1  0
 27 23  1  0
 28 24  1  0
 31 21  1  0
 31 22  1  0
 32 24  1  6
 32 23  1  0
 32 30  1  0
 32 29  1  0
 33 10  1  0
 36 34  1  0
 37  4  1  0
 38 15  1  0
 38 11  1  0
 39 15  1  0
 39 14  1  0
 40 37  1  0
 40 12  1  0
 41 28  1  0
 41 27  1  0
 41 14  1  0
 42 30  1  0
 42 29  1  0
 42 20  1  0
 43 25  1  0
 43 35  1  0
 43 26  1  0
 44 20  1  0
 45 36  1  0
 45 13  1  0
 31 46  1  6
 46 15  1  0
M  END
$$$$

     RDKit          3D

 25 28  0  0  0  0  0  0  0  0999 V2000
   17.9340    0.0430    6.2810 C   0  0  1  0  0  0  0  0  0  0  0  0
   16.4190   -2.0310    3.4910 C   0  0  0  0  0  0  0  0  0  0  0  0
   18.3820   -2.6670    4.8360 C   0  0  0  0  0  0  0  0  0  0  0  0
   15.6180    1.5540    4.9540 C   0  0  0  0  0  0  0  0  0  0  0  0
   19.4040   -0.2230    6.1470 C   0  0  2  0  0  0  0  0  0  0  0  0
   21.3470   -0.8940    6.3490 C   0  0  2  0  0  0  0  0  0  0  0  0
   22.2500   -2.6350    7.8370 C   0  0  0  0  0  0  0  0  0  0  0  0
   23.2960   -3.3820    8.3370 C   0  0  0  0  0  0  0  0  0  0  0  0
   24.5990   -3.1720    7.8900 C   0  0  0  0  0  0  0  0  0  0  0  0
   23.7710   -1.4120    6.4600 C   0  0  0  0  0  0  0  0  0  0  0  0
   17.1530   -0.4770    5.0930 C   0  0  1  0  0  0  0  0  0  0  0  0
   16.1970    1.9170    6.3120 C   0  0  0  0  0  0  0  0  0  0  0  0
   17.5280   -0.6530    7.5910 C   0  0  0  0  0  0  0  0  0  0  0  0
   22.4740   -1.6490    6.8890 C   0  0  0  0  0  0  0  0  0  0  0  0
   17.3160   -1.7680    4.5220 C   0  0  1  0  0  0  0  0  0  0  0  0
   24.8180   -2.1860    6.9260 C   0  0  0  0  0  0  0  0  0  0  0  0
   16.1010    0.1920    4.5450 C   0  0  0  0  0  0  0  0  0  0  0  0
   17.6850    1.5710    6.3690 C   0  0  0  0  0  0  0  0  0  0  0  0
   16.3270   -3.1290    2.7260 N   0  0  0  0  0  0  0  0  0  0  0  0
   19.2680   -3.3600    5.0410 N   0  0  0  0  0  0  0  0  0  0  0  0
   21.4720    0.0690    5.4760 N   0  0  0  0  0  0  0  0  0  0  0  0
   20.0730   -1.0680    6.8420 N   0  0  0  0  0  0  0  0  0  0  0  0
   25.6360   -3.9190    8.3850 N   0  0  0  0  0  0  0  0  0  0  0  0
   20.1310    0.5300    5.3170 O   0  0  0  0  0  0  0  0  0  0  0  0
   15.3300   -0.7040    3.2730 S   0  0  0  0  0  0  0  0  0  0  0  0
  5  1  1  0
  8  7  1  0
  9  8  1  0
 11  1  1  0
 12  4  1  0
  1 13  1  1
  6 14  1  1
 14 10  1  0
 14  7  1  0
 15 11  1  0
 15  3  1  6
 15  2  1  0
 16 10  1  0
 16  9  1  0
 17  4  1  0
 11 17  1  1
 18 12  1  0
 18  1  1  0
 19  2  1  0
 20  3  1  0
 21  6  1  0
 22  6  1  0
  5 22  1  1
 23  9  1  0
 24 21  1  0
 24  5  1  0
 25 17  1  0
 25  2  1  0
M  END
$$$$

     RDKit          3D

 41 47  0  0  0  0  0  0  0  0999 V2000
   17.8270   -1.6210    4.7410 C   0  0  1  0  0  0  0  0  0  0  0  0
   21.6100   -2.3740    6.6600 C   0  0  0  0  0  0  0  0  0  0  0  0
   22.1570   -3.5480    9.5100 C   0  0  0  0  0  0  0  0  0  0  0  0
   22.6460   -2.7620   10.7400 C   0  0  1  0  0  0  0  0  0  0  0  0
   24.4700   -2.4330   12.4410 C   0  0  0  0  0  0  0  0  0  0  0  0
   24.9760   -3.0910   10.0110 C   0  0  0  0  0  0  0  0  0  0  0  0
   17.3590    0.6420    5.8460 C   0  0  2  0  0  0  0  0  0  0  0  0
   16.5350    1.7610    5.9090 C   0  0  0  0  0  0  0  0  0  0  0  0
   15.4450    1.9050    5.0260 C   0  0  0  0  0  0  0  0  0  0  0  0
   15.1640    0.9010    4.0940 C   0  0  0  0  0  0  0  0  0  0  0  0
   15.9810   -0.2470    4.0280 C   0  0  0  0  0  0  0  0  0  0  0  0
   15.6540   -1.2350    3.0860 C   0  0  0  0  0  0  0  0  0  0  0  0
   16.4160   -2.3970    2.9620 C   0  0  0  0  0  0  0  0  0  0  0  0
   17.5200   -2.5740    3.8100 C   0  0  0  0  0  0  0  0  0  0  0  0
   19.1230   -1.9510    5.5280 C   0  0  2  0  0  0  0  0  0  0  0  0
   20.2570   -1.2510    5.0370 C   0  0  2  0  0  0  0  0  0  0  0  0
   21.5270   -1.4810    5.6460 C   0  0  0  0  0  0  0  0  0  0  0  0
   20.3970   -3.0750    7.0610 C   0  0  0  0  0  0  0  0  0  0  0  0
   22.9000   -2.5590    7.2090 C   0  0  2  0  0  0  0  0  0  0  0  0
   23.9940   -3.2340   11.1020 C   0  0  2  0  0  0  0  0  0  0  0  0
   24.5340   -3.9160    8.7830 C   0  0  0  0  0  0  0  0  0  0  0  0
   23.8160   -1.0380    5.7590 C   0  0  0  0  0  0  0  0  0  0  0  0
   26.1470   -0.8860    5.5710 C   0  0  0  0  0  0  0  0  0  0  0  0
   27.2400   -0.0810    4.6920 C   0  0  1  0  0  0  0  0  0  0  0  0
   26.6650    0.4620    2.5090 C   0  0  0  0  0  0  0  0  0  0  0  0
   27.3070    1.6280    3.2190 C   0  0  0  0  0  0  0  0  0  0  0  0
   27.0440    1.2390    4.6980 C   0  0  0  0  0  0  0  0  0  0  0  0
   28.3710   -1.6150    3.0680 C   0  0  0  0  0  0  0  0  0  0  0  0
   29.0940   -1.7140    4.6230 C   0  0  0  0  0  0  0  0  0  0  0  0
   28.7190   -0.4580    5.2760 C   0  0  0  0  0  0  0  0  0  0  0  0
   17.0650   -0.4000    4.8820 C   0  0  0  0  0  0  0  0  0  0  0  0
   20.2670   -0.3050    4.0630 F   0  0  0  0  0  0  0  0  0  0  0  0
   19.2090   -2.8580    6.4970 N   0  0  0  0  0  0  0  0  0  0  0  0
   23.1640   -3.3970    8.3690 N   0  0  0  0  0  0  0  0  0  0  0  0
   23.9530   -1.8970    6.7760 N   0  0  0  0  0  0  0  0  0  0  0  0
   27.1970   -0.5800    3.1720 N   0  0  0  0  0  0  0  0  0  0  0  0
   22.6120   -0.7950    5.2150 N   0  0  0  0  0  0  0  0  0  0  0  0
   22.6450   -1.3590   10.4520 O   0  0  0  0  0  0  0  0  0  0  0  0
   23.6400   -2.2370   13.3090 O   0  0  0  0  0  0  0  0  0  0  0  0
   24.9100   -0.3360    5.2440 O   0  0  0  0  0  0  0  0  0  0  0  0
   18.6400    0.5710    7.0700 Cl  0  0  0  0  0  0  0  0  0  0  0  0
  4  3  1  0
  8  7  1  0
  9  8  1  0
 10  9  1  0
 11 10  1  0
 12 11  1  0
 13 12  1  0
 14 13  1  0
  1 14  1  6
 15  1  1  0
 16 15  1  0
 17 16  1  0
 17  2  1  0
 18  2  1  0
 19  2  1  0
 20  6  1  0
 20  4  1  0
 20  5  1  1
 21  6  1  0
 24 23  1  1
 26 25  1  0
 27 24  1  0
 27 26  1  0
 29 28  1  0
 30 24  1  0
 30 29  1  0
 31 11  1  0
 31  1  1  0
 31  7  1  0
 16 32  1  1
 33 18  1  0
 15 33  1  6
 34 21  1  0
 19 34  1  1
 34  3  1  0
 35 22  1  0
 35 19  1  0
 36 25  1  0
 36 24  1  0
 36 28  1  0
 37 17  1  0
 37 22  1  0
  4 38  1  6
 39  5  1  0
 40 23  1  0
 40 22  1  0
  7 41  1  1
M  END
$$$$

     RDKit          3D

 22 23  0  0  0  0  0  0  0  0999 V2000
   23.4000   -2.5790    6.7250 C   0  0  0  0  0  0  0  0  0  0  0  0
   24.8040   -3.2410    8.7990 N   0  0  0  0  0  0  0  0  0  0  0  0
   25.6020   -4.1480    9.5590 C   0  0  0  0  0  0  0  0  0  0  0  0
   25.0570   -4.2520   13.8770 C   0  0  0  0  0  0  0  0  0  0  0  0
   23.8330   -2.2450   10.7240 C   0  0  0  0  0  0  0  0  0  0  0  0
   24.6050   -1.9890    9.4770 C   0  0  0  0  0  0  0  0  0  0  0  0
   19.8760   -1.8710    9.1910 Cl  0  0  0  0  0  0  0  0  0  0  0  0
   20.2460   -0.9240    7.8000 C   0  0  0  0  0  0  0  0  0  0  0  0
   19.4310    0.1420    7.4310 C   0  0  0  0  0  0  0  0  0  0  0  0
   19.7490    0.8670    6.2990 C   0  0  0  0  0  0  0  0  0  0  0  0
   18.7700    2.2320    5.8130 Cl  0  0  0  0  0  0  0  0  0  0  0  0
   20.8690    0.5300    5.5380 C   0  0  0  0  0  0  0  0  0  0  0  0
   21.6860   -0.5460    5.9090 C   0  0  0  0  0  0  0  0  0  0  0  0
   21.3800   -1.2610    7.0230 C   0  0  0  0  0  0  0  0  0  0  0  0
   22.1560   -2.3260    7.3990 O   0  0  0  0  0  0  0  0  0  0  0  0
   24.2500   -3.5780    7.4580 C   0  0  0  0  0  0  0  0  0  0  0  0
   25.0110   -4.4100   10.9120 C   0  0  0  0  0  0  0  0  0  0  0  0
   24.4490   -3.2470   11.5670 N   0  0  0  0  0  0  0  0  0  0  0  0
   24.4420   -3.1590   13.0100 C   0  0  0  0  0  0  0  0  0  0  0  0
   25.7940   -3.8350   15.1360 C   0  0  0  0  0  0  0  0  0  0  0  0
   23.9080   -2.1760   13.5340 O   0  0  0  0  0  0  0  0  0  0  0  0
   24.4560   -4.6940    6.9470 O   0  0  0  0  0  0  0  0  0  0  0  0
  3  2  1  0
  6  5  1  0
  6  2  1  0
  8  7  1  0
  9  8  1  0
 10  9  1  0
 11 10  1  0
 12 10  1  0
 13 12  1  0
 14 13  1  0
 14  8  1  0
 15 14  1  0
 15  1  1  0
 16  2  1  0
 16  1  1  0
 17  3  1  0
 18  5  1  0
 18 17  1  0
 19 18  1  0
 19  4  1  0
 20  4  1  0
 21 19  1  0
 22 16  1  0
M  END
$$$$

     RDKit          3D

 30 34  0  0  0  0  0  0  0  0999 V2000
   24.7540   -4.4840   13.7180 C   0  0  0  0  0  0  0  0  0  0  0  0
   23.8680   -3.2950   13.3100 C   0  0  0  0  0  0  0  0  0  0  0  0
   24.2760   -3.6800   10.8220 C   0  0  0  0  0  0  0  0  0  0  0  0
   21.4660   -2.1650    6.0600 C   0  0  0  0  0  0  0  0  0  0  0  0
   20.4410   -1.8300    5.2040 C   0  0  0  0  0  0  0  0  0  0  0  0
   19.2150   -1.4390    5.7250 C   0  0  0  0  0  0  0  0  0  0  0  0
   19.0440   -1.3710    7.1120 C   0  0  0  0  0  0  0  0  0  0  0  0
   20.0800   -1.7170    7.9830 C   0  0  0  0  0  0  0  0  0  0  0  0
   20.8940   -1.2170   10.1840 C   0  0  0  0  0  0  0  0  0  0  0  0
   21.7060   -2.3980   10.6310 C   0  0  2  0  0  0  0  0  0  0  0  0
   22.7820   -1.9500   11.5950 C   0  0  0  0  0  0  0  0  0  0  0  0
   18.1270   -1.1620    4.7350 C   0  0  2  0  0  0  0  0  0  0  0  0
   17.5780    0.1250    4.5760 C   0  0  1  0  0  0  0  0  0  0  0  0
   16.4810   -2.0080    3.1480 C   0  0  0  0  0  0  0  0  0  0  0  0
   17.5870   -2.2480    3.9820 C   0  0  0  0  0  0  0  0  0  0  0  0
   17.8520   -3.6300    3.8320 C   0  0  0  0  0  0  0  0  0  0  0  0
   18.2370    1.3500    5.1590 C   0  0  0  0  0  0  0  0  0  0  0  0
   17.5180   -0.8230    7.7640 Cl  0  0  0  0  0  0  0  0  0  0  0  0
   21.3220   -2.1160    7.4500 C   0  0  0  0  0  0  0  0  0  0  0  0
   22.5440   -2.4670    8.2680 C   0  0  0  0  0  0  0  0  0  0  0  0
   19.8170   -1.6690    9.3500 O   0  0  0  0  0  0  0  0  0  0  0  0
   22.2320   -3.1930    9.4890 N   0  0  0  0  0  0  0  0  0  0  0  0
   23.2150   -4.2210    9.8910 C   0  0  0  0  0  0  0  0  0  0  0  0
   23.6480   -3.0630   11.9980 N   0  0  0  0  0  0  0  0  0  0  0  0
   23.3820   -2.5710   14.1800 O   0  0  0  0  0  0  0  0  0  0  0  0
   26.0880   -4.0980   14.2900 C   0  0  0  0  0  0  0  0  0  0  0  0
   16.9850   -4.1990    3.0150 N   0  0  0  0  0  0  0  0  0  0  0  0
   16.1570   -3.2010    2.5920 N   0  0  0  0  0  0  0  0  0  0  0  0
   15.9030   -0.7530    3.0360 C   0  0  0  0  0  0  0  0  0  0  0  0
   16.4540    0.2890    3.7590 C   0  0  0  0  0  0  0  0  0  0  0  0
  2  1  1  0
  5  4  1  0
  6  5  1  0
  7  6  1  0
  8  7  1  0
 10  9  1  6
 11 10  1  0
 12  6  1  1
 13 12  1  0
 15 14  1  0
 15 12  1  0
 16 15  1  0
 13 17  1  6
 18  7  1  0
 19  8  1  0
 19  4  1  0
 20 19  1  0
 21  9  1  0
 21  8  1  0
 22 10  1  0
 22 20  1  0
 23 22  1  0
 23  3  1  0
 24  3  1  0
 24 11  1  0
 24  2  1  0
 25  2  1  0
 26  1  1  0
 27 16  1  0
 28 27  1  0
 28 14  1  0
 29 14  1  0
 30 29  1  0
 30 13  1  0
M  END
$$$$

     RDKit          3D

 31 35  0  0  0  0  0  0  0  0999 V2000
   24.3290   -4.5280   13.5880 C   0  0  0  0  0  0  0  0  0  0  0  0
   23.4750   -3.3780   13.1390 C   0  0  2  0  0  0  0  0  0  0  0  0
   22.3500   -2.0470   11.4450 C   0  0  0  0  0  0  0  0  0  0  0  0
   21.1130   -1.3170    6.1430 C   0  0  0  0  0  0  0  0  0  0  0  0
   20.0120   -0.7350    5.4750 C   0  0  0  0  0  0  0  0  0  0  0  0
   18.7440   -0.7540    6.0080 C   0  0  1  0  0  0  0  0  0  0  0  0
   17.5730   -0.2820    5.2050 C   0  0  2  0  0  0  0  0  0  0  0  0
   17.0160    0.9990    5.3870 C   0  0  0  0  0  0  0  0  0  0  0  0
   17.6050    1.9940    6.3550 C   0  0  0  0  0  0  0  0  0  0  0  0
   15.8860    1.3700    4.6540 C   0  0  0  0  0  0  0  0  0  0  0  0
   15.2770    0.5130    3.7530 C   0  0  0  0  0  0  0  0  0  0  0  0
   15.8380   -0.7380    3.5700 C   0  0  0  0  0  0  0  0  0  0  0  0
   17.1960   -2.4810    3.8500 C   0  0  0  0  0  0  0  0  0  0  0  0
   19.6210   -1.9670    7.9160 C   0  0  0  0  0  0  0  0  0  0  0  0
   20.9100   -1.9330    7.3930 C   0  0  0  0  0  0  0  0  0  0  0  0
   22.6760   -4.2880    9.6780 C   0  0  0  0  0  0  0  0  0  0  0  0
   23.7230   -3.9540   10.7050 C   0  0  0  0  0  0  0  0  0  0  0  0
   17.0050   -1.4590    7.9700 Cl  0  0  0  0  0  0  0  0  0  0  0  0
   18.5770   -1.3950    7.2590 C   0  0  0  0  0  0  0  0  0  0  0  0
   16.9660   -1.1580    4.2880 C   0  0  0  0  0  0  0  0  0  0  0  0
   16.3120   -2.8410    2.9390 N   0  0  0  0  0  0  0  0  0  0  0  0
   15.4950   -1.7690    2.7620 N   0  0  0  0  0  0  0  0  0  0  0  0
   22.3340   -1.2860    5.5320 N   0  0  0  0  0  0  0  0  0  0  0  0
   23.3240   -1.8640    6.2010 C   0  0  0  0  0  0  0  0  0  0  0  0
   23.2920   -2.4750    7.4000 N   0  0  0  0  0  0  0  0  0  0  0  0
   22.0810   -2.5130    7.9950 C   0  0  1  0  0  0  0  0  0  0  0  0
   21.9740   -3.0770    9.2660 N   0  0  0  0  0  0  0  0  0  0  0  0
   21.3350   -2.4270   10.4130 C   0  0  0  0  0  0  0  0  0  0  0  0
   23.1450   -3.2150   11.8450 N   0  0  0  0  0  0  0  0  0  0  0  0
   23.2030   -2.5350   13.9830 O   0  0  0  0  0  0  0  0  0  0  0  0
   25.6400   -4.0650   14.0660 C   0  0  0  0  0  0  0  0  0  0  0  0
  2  1  1  0
  5  4  1  0
  6  5  1  6
  7  6  1  0
  7  8  1  1
  9  8  1  0
 10  8  1  0
 11 10  1  0
 12 11  1  0
 15 14  1  0
 15  4  1  0
 17 16  1  0
 19 18  1  0
 19 14  1  0
 19  6  1  0
 20 12  1  0
 20 13  1  0
 20  7  1  0
 21 13  1  0
 22 21  1  0
 22 12  1  0
 23  4  1  0
 24 23  1  0
 25 24  1  0
 26 15  1  0
 26 25  1  0
 26 27  1  1
 27 16  1  0
 28 27  1  0
 28  3  1  0
 29 17  1  0
 29  3  1  0
 29  2  1  0
  2 30  1  6
 31  1  1  0
M  END
$$$$

     RDKit          3D

 29 31  0  0  0  0  0  0  0  0999 V2000
   17.7530    0.1520    8.1020 C   0  0  0  0  0  0  0  0  0  0  0  0
   18.6420    1.2010    6.3540 C   0  0  2  0  0  0  0  0  0  0  0  0
   19.2250    0.4260    5.1980 C   0  0  0  0  0  0  0  0  0  0  0  0
   17.5060   -0.9800   10.2870 C   0  0  0  0  0  0  0  0  0  0  0  0
   18.8270   -0.6230   10.6000 C   0  0  0  0  0  0  0  0  0  0  0  0
   23.4360   -2.3920   11.2000 C   0  0  0  0  0  0  0  0  0  0  0  0
   25.7920   -4.4780   14.2520 C   0  0  0  0  0  0  0  0  0  0  0  0
   24.6510   -6.7850   11.1180 O   0  0  0  0  0  0  0  0  0  0  0  0
   24.3650   -5.9070   12.2380 S   0  0  2  0  0  0  0  0  0  0  0  0
   23.3280   -4.6790   11.7960 N   0  0  0  0  0  0  0  0  0  0  0  0
   23.9990   -3.7270   10.9180 C   0  0  1  0  0  0  0  0  0  0  0  0
   23.9800   -4.0980    9.4700 C   0  0  0  0  0  0  0  0  0  0  0  0
   23.1190   -3.2660    8.5630 C   0  0  0  0  0  0  0  0  0  0  0  0
   22.9770   -1.8860    8.9660 N   0  0  0  0  0  0  0  0  0  0  0  0
   22.0510   -0.9670    8.3220 C   0  0  0  0  0  0  0  0  0  0  0  0
   21.9050    0.4460    8.8600 C   0  0  0  0  0  0  0  0  0  0  0  0
   20.9530    0.5280    9.9150 O   0  0  0  0  0  0  0  0  0  0  0  0
   19.6070    0.1110    9.6880 C   0  0  0  0  0  0  0  0  0  0  0  0
   19.0230    0.4910    8.4230 C   0  0  0  0  0  0  0  0  0  0  0  0
   17.4680    0.6430    6.8530 O   0  0  0  0  0  0  0  0  0  0  0  0
   18.4240    2.5910    5.9630 C   0  0  0  0  0  0  0  0  0  0  0  0
   19.5580    1.1960    7.3770 O   0  0  0  0  0  0  0  0  0  0  0  0
   16.9770   -0.6000    9.0650 C   0  0  0  0  0  0  0  0  0  0  0  0
   15.3130   -1.0220    8.6680 Cl  0  0  0  0  0  0  0  0  0  0  0  0
   19.3810   -1.1450   12.1510 Cl  0  0  0  0  0  0  0  0  0  0  0  0
   21.3500   -1.3380    7.3800 O   0  0  0  0  0  0  0  0  0  0  0  0
   23.8050   -1.5170   10.0910 C   0  0  0  0  0  0  0  0  0  0  0  0
   25.8950   -5.2740   12.9340 C   0  0  0  0  0  0  0  0  0  0  0  0
   23.7050   -6.7510   13.1850 O   0  0  0  0  0  0  0  0  0  0  0  0
  2  3  1  6
  5  4  1  0
  9  8  1  6
 10  9  1  0
 11 10  1  1
 11  6  1  0
 12 11  1  0
 13 12  1  0
 14 13  1  0
 15 14  1  0
 16 15  1  0
 17 16  1  0
 18 17  1  0
 18  5  1  0
 19 18  1  0
 19  1  1  0
 20  2  1  0
 20  1  1  0
 21  2  1  0
 22 19  1  0
 22  2  1  0
 23  4  1  0
 23  1  1  0
 24 23  1  0
 25  5  1  0
 26 15  1  0
 27 14  1  0
 27  6  1  0
 28  9  1  0
 28  7  1  0
 29  9  1  0
M  END
$$$$

     RDKit          3D

 30 33  0  0  0  0  0  0  0  0999 V2000
   23.6150   -2.3420   13.8110 O   0  0  0  0  0  0  0  0  0  0  0  0
   23.9880   -3.1800   12.9160 C   0  0  1  0  0  0  0  0  0  0  0  0
   24.6860   -4.4130   13.4380 C   0  0  0  0  0  0  0  0  0  0  0  0
   26.0210   -4.0950   14.1040 C   0  0  0  0  0  0  0  0  0  0  0  0
   23.5390   -3.0180   11.7160 N   0  0  0  0  0  0  0  0  0  0  0  0
   22.6010   -1.9250   11.3710 C   0  0  0  0  0  0  0  0  0  0  0  0
   22.6730   -1.5210   10.0230 C   0  0  0  0  0  0  0  0  0  0  0  0
   23.9210   -3.9770   10.6060 C   0  0  0  0  0  0  0  0  0  0  0  0
   24.2420   -3.2300    9.3930 C   0  0  0  0  0  0  0  0  0  0  0  0
   23.1210   -2.4400    8.9650 N   0  0  0  0  0  0  0  0  0  0  0  0
   22.9430   -2.0090    7.6680 C   0  0  0  0  0  0  0  0  0  0  0  0
   24.1050   -2.1160    6.9080 N   0  0  0  0  0  0  0  0  0  0  0  0
   24.0550   -1.5930    5.6490 C   0  0  0  0  0  0  0  0  0  0  0  0
   22.9510   -1.0340    5.1320 N   0  0  0  0  0  0  0  0  0  0  0  0
   21.7900   -1.0070    5.8490 C   0  0  2  0  0  0  0  0  0  0  0  0
   21.7310   -1.5410    7.1070 C   0  0  2  0  0  0  0  0  0  0  0  0
   20.5030   -1.5220    7.7900 C   0  0  0  0  0  0  0  0  0  0  0  0
   19.3990   -1.0270    7.1210 C   0  0  1  0  0  0  0  0  0  0  0  0
   17.9330   -0.9860    8.0440 Cl  0  0  0  0  0  0  0  0  0  0  0  0
   20.6010   -0.5440    5.2660 C   0  0  0  0  0  0  0  0  0  0  0  0
   20.6810   -0.0810    4.0100 F   0  0  0  0  0  0  0  0  0  0  0  0
   19.3820   -0.5200    5.8520 C   0  0  1  0  0  0  0  0  0  0  0  0
   18.1770   -0.0790    5.0870 C   0  0  0  0  0  0  0  0  0  0  0  0
   17.6620   -0.9610    4.1210 C   0  0  2  0  0  0  0  0  0  0  0  0
   18.2890   -2.1000    3.7060 O   0  0  0  0  0  0  0  0  0  0  0  0
   17.5580    1.1040    5.3000 C   0  0  2  0  0  0  0  0  0  0  0  0
   18.0640    1.8560    6.3240 F   0  0  0  0  0  0  0  0  0  0  0  0
   16.3530    1.4100    4.5300 C   0  0  0  0  0  0  0  0  0  0  0  0
   15.9570    0.5610    3.5720 C   0  0  0  0  0  0  0  0  0  0  0  0
   16.5470   -0.6180    3.3560 C   0  0  0  0  0  0  0  0  0  0  0  0
  2  1  1  1
  3  2  1  0
  4  3  1  0
  5  2  1  0
  6  5  1  0
  7  6  1  0
  8  5  1  0
  9  8  1  0
 10  9  1  0
 10  7  1  0
 11 10  1  0
 12 11  1  0
 13 12  1  0
 14 13  1  0
 15 14  1  6
 16 15  1  0
 16 11  1  0
 16 17  1  1
 18 17  1  0
 18 19  1  1
 20 15  1  0
 21 20  1  0
 22 20  1  0
 22 18  1  0
 22 23  1  6
 24 23  1  0
 24 25  1  6
 26 23  1  0
 26 27  1  1
 28 26  1  0
 29 28  1  0
 30 29  1  0
 30 24  1  0
M  END
$$$$

     RDKit          3D

 28 31  0  0  0  0  0  0  0  0999 V2000
   21.1370   -0.8130    5.2020 C   0  0  0  0  0  0  0  0  0  0  0  0
   19.7950   -0.7190    5.7730 C   0  0  0  0  0  0  0  0  0  0  0  0
   23.1910   -1.6190   10.4160 C   0  0  0  0  0  0  0  0  0  0  0  0
   22.6320   -1.0140    9.2720 C   0  0  0  0  0  0  0  0  0  0  0  0
   18.0200   -1.2830    4.0920 C   0  0  0  0  0  0  0  0  0  0  0  0
   16.8580   -1.0320    3.3740 C   0  0  1  0  0  0  0  0  0  0  0  0
   16.1810    0.1850    3.4900 C   0  0  0  0  0  0  0  0  0  0  0  0
   16.6690    1.1010    4.4190 C   0  0  0  0  0  0  0  0  0  0  0  0
   17.8430    0.8470    5.1570 C   0  0  0  0  0  0  0  0  0  0  0  0
   18.3420    1.9130    6.1430 C   0  0  0  0  0  0  0  0  0  0  0  0
   18.4030   -2.6600    3.6110 C   0  0  0  0  0  0  0  0  0  0  0  0
   18.8150   -1.1170    8.0720 C   0  0  0  0  0  0  0  0  0  0  0  0
   22.9050   -2.9680   10.7080 C   0  0  1  0  0  0  0  0  0  0  0  0
   23.7960   -3.2750   13.0420 C   0  0  2  0  0  0  0  0  0  0  0  0
   24.3960   -4.2600   13.9620 C   0  0  0  0  0  0  0  0  0  0  0  0
   25.8730   -3.9290   14.2320 C   0  0  0  0  0  0  0  0  0  0  0  0
   21.8950   -1.1780    6.1480 N   0  0  0  0  0  0  0  0  0  0  0  0
   19.9330   -1.0330    7.0610 C   0  0  0  0  0  0  0  0  0  0  0  0
   21.2030   -1.2570    7.3010 N   0  0  0  0  0  0  0  0  0  0  0  0
   21.5600   -0.5810    3.7790 C   0  0  0  0  0  0  0  0  0  0  0  0
   18.5290   -0.3760    5.0180 C   0  0  0  0  0  0  0  0  0  0  0  0
   21.7380   -1.7350    8.4540 C   0  0  1  0  0  0  0  0  0  0  0  0
   21.5550   -3.0900    8.6930 C   0  0  0  0  0  0  0  0  0  0  0  0
   22.1150   -3.6860    9.8160 C   0  0  0  0  0  0  0  0  0  0  0  0
   17.5230   -3.0310    2.7570 N   0  0  0  0  0  0  0  0  0  0  0  0
   16.5730   -2.0710    2.5530 N   0  0  0  0  0  0  0  0  0  0  0  0
   23.4660   -3.7000   11.7930 N   0  0  0  0  0  0  0  0  0  0  0  0
   23.7250   -2.1200   13.4450 O   0  0  0  0  0  0  0  0  0  0  0  0
  2  1  1  0
  4  3  1  0
  6  5  1  0
  6  7  1  6
  8  7  1  0
  9  8  1  0
 10  9  1  0
 11  5  1  0
 13  3  1  0
 15 14  1  0
 16 15  1  0
 17  1  1  0
 18 12  1  0
 18  2  1  0
 19 18  1  0
 19 17  1  0
 20  1  1  0
 21  9  1  0
 21  5  1  0
 21  2  1  0
 22 19  1  6
 22  4  1  0
 23 22  1  0
 24 23  1  0
 24 13  1  0
 25 11  1  0
 26 25  1  0
 26  6  1  0
 13 27  1  6
 27 14  1  0
 14 28  1  6
M  END
$$$$

     RDKit          3D

 30 33  0  0  0  0  0  0  0  0999 V2000
   20.8320   -0.9410    2.6490 C   0  0  0  0  0  0  0  0  0  0  0  0
   20.7620   -0.8780    3.8130 C   0  0  0  0  0  0  0  0  0  0  0  0
   20.6950   -0.8150    5.2400 C   0  0  0  0  0  0  0  0  0  0  0  0
   21.8610   -1.0410    5.9640 C   0  0  0  0  0  0  0  0  0  0  0  0
   21.8420   -1.0000    7.3590 C   0  0  0  0  0  0  0  0  0  0  0  0
   23.2130   -1.2760    8.0000 C   0  0  0  0  0  0  0  0  0  0  0  0
   23.0110   -2.0830    9.2080 N   0  0  0  0  0  0  0  0  0  0  0  0
   24.2350   -2.8530    9.5100 C   0  0  0  0  0  0  0  0  0  0  0  0
   23.9470   -3.8650   10.6210 C   0  0  0  0  0  0  0  0  0  0  0  0
   23.3700   -3.1440   11.7830 N   0  0  0  0  0  0  0  0  0  0  0  0
   23.8530   -3.3360   13.0190 C   0  0  0  0  0  0  0  0  0  0  0  0
   23.3890   -2.7020   13.9660 O   0  0  0  0  0  0  0  0  0  0  0  0
   24.9820   -4.3310   13.2960 C   0  0  0  0  0  0  0  0  0  0  0  0
   26.2160   -3.9000   14.0940 C   0  0  0  0  0  0  0  0  0  0  0  0
   22.2730   -2.1690   11.5300 C   0  0  0  0  0  0  0  0  0  0  0  0
   22.6830   -1.2460   10.3820 C   0  0  2  0  0  0  0  0  0  0  0  0
   21.6070   -0.1850   10.0720 C   0  0  0  0  0  0  0  0  0  0  0  0
   20.4610   -0.6440    9.3710 O   0  0  0  0  0  0  0  0  0  0  0  0
   20.6580   -0.7140    8.0220 C   0  0  0  0  0  0  0  0  0  0  0  0
   19.4900   -0.4840    7.2900 C   0  0  0  0  0  0  0  0  0  0  0  0
   18.3480   -0.2120    7.9340 F   0  0  0  0  0  0  0  0  0  0  0  0
   19.4990   -0.5250    5.8950 C   0  0  0  0  0  0  0  0  0  0  0  0
   18.3270   -0.3210    5.1620 C   0  0  0  0  0  0  0  0  0  0  0  0
   17.8120    0.9450    4.8800 C   0  0  0  0  0  0  0  0  0  0  0  0
   18.6030    2.3800    5.4380 Cl  0  0  0  0  0  0  0  0  0  0  0  0
   16.6350    1.0720    4.1370 C   0  0  0  0  0  0  0  0  0  0  0  0
   15.9630   -0.0590    3.6710 C   0  0  0  0  0  0  0  0  0  0  0  0
   16.4750   -1.3230    3.9500 C   0  0  0  0  0  0  0  0  0  0  0  0
   17.6470   -1.4530    4.6970 C   0  0  0  0  0  0  0  0  0  0  0  0
   18.1320   -2.7060    4.9600 O   0  0  0  0  0  0  0  0  0  0  0  0
  2  1  1  0
  3  2  1  0
  4  3  1  0
  5  4  1  0
  6  5  1  0
  7  6  1  0
  8  7  1  0
  9  8  1  0
 10  9  1  0
 11 10  1  0
 12 11  1  0
 13 11  1  0
 14 13  1  0
 15 10  1  0
 16  7  1  0
 16 15  1  1
 17 16  1  0
 18 17  1  0
 19 18  1  0
 19  5  1  0
 20 19  1  0
 21 20  1  0
 22  3  1  0
 22 20  1  0
 23 22  1  0
 24 23  1  0
 25 24  1  0
 26 24  1  0
 27 26  1  0
 28 27  1  0
 29 28  1  0
 29 23  1  0
 30 29  1  0
M  END
$$$$

     RDKit          3D

 33 38  0  0  0  0  0  0  0  0999 V2000
   17.8810   -2.8470    4.6570 C   0  0  0  0  0  0  0  0  0  0  0  0
   23.7140   -0.8430    5.6460 N   0  0  0  0  0  0  0  0  0  0  0  0
   22.7140   -2.3370    7.2230 C   0  0  0  0  0  0  0  0  0  0  0  0
   20.0970   -0.8710    6.5510 C   0  0  0  0  0  0  0  0  0  0  0  0
   17.3670   -0.8050    7.3160 C   0  0  0  0  0  0  0  0  0  0  0  0
   19.1970   -0.2760    5.7430 C   0  0  0  0  0  0  0  0  0  0  0  0
   16.8590   -0.5410    4.8820 C   0  0  0  0  0  0  0  0  0  0  0  0
   15.4590    1.5810    4.7470 C   0  0  0  0  0  0  0  0  0  0  0  0
   17.4980    1.4810    6.2010 C   0  0  0  0  0  0  0  0  0  0  0  0
   25.9180    0.2180    4.3560 C   0  0  2  0  0  0  0  0  0  0  0  0
   16.9450   -1.8320    4.2970 C   0  0  0  0  0  0  0  0  0  0  0  0
   24.8980   -1.3660    6.0210 C   0  0  0  0  0  0  0  0  0  0  0  0
   23.9800   -2.7860    7.5310 C   0  0  0  0  0  0  0  0  0  0  0  0
   21.3210   -0.7980    5.8330 C   0  0  0  0  0  0  0  0  0  0  0  0
   19.7210   -1.4060    7.9010 C   0  0  0  0  0  0  0  0  0  0  0  0
   18.4510   -0.7290    8.3860 C   0  0  0  0  0  0  0  0  0  0  0  0
   16.0140   -2.0410    3.2910 C   0  0  0  0  0  0  0  0  0  0  0  0
   15.8710    0.2030    4.3160 C   0  0  2  0  0  0  0  0  0  0  0  0
   16.0260    1.8740    6.1340 C   0  0  0  0  0  0  0  0  0  0  0  0
   17.7340   -0.0390    6.0220 C   0  0  1  0  0  0  0  0  0  0  0  0
   26.7760   -0.0700    3.1460 C   0  0  0  0  0  0  0  0  0  0  0  0
   28.1690   -1.6420    4.4520 C   0  0  0  0  0  0  0  0  0  0  0  0
   27.3720   -1.3620    5.7030 C   0  0  0  0  0  0  0  0  0  0  0  0
   26.2250    1.5680    4.9720 C   0  0  0  0  0  0  0  0  0  0  0  0
   22.6290   -1.3430    6.2600 C   0  0  0  0  0  0  0  0  0  0  0  0
   26.0440   -0.8590    5.3510 N   0  0  0  0  0  0  0  0  0  0  0  0
   25.0920   -2.3190    6.9470 N   0  0  0  0  0  0  0  0  0  0  0  0
   28.1570   -0.4570    3.5510 N   0  0  0  0  0  0  0  0  0  0  0  0
   18.5980   -3.6920    4.9470 N   0  0  0  0  0  0  0  0  0  0  0  0
   15.8130   -3.1400    2.5580 N   0  0  0  0  0  0  0  0  0  0  0  0
   21.1650   -0.2010    4.6760 N   0  0  0  0  0  0  0  0  0  0  0  0
   19.7740    0.1480    4.6060 O   0  0  0  0  0  0  0  0  0  0  0  0
   15.0320   -0.6460    3.0620 S   0  0  0  0  0  0  0  0  0  0  0  0
  6  4  1  0
 11  7  1  0
 11  1  1  0
 12  2  1  0
 13  3  1  0
 14  4  1  0
 15  4  1  0
 16 15  1  0
 16  5  1  0
 17 11  1  0
 18  8  1  1
 18  7  1  0
 19  8  1  0
 19  9  1  0
 20  7  1  0
 20  9  1  1
 20  6  1  0
 20  5  1  0
 21 10  1  0
 23 22  1  0
 10 24  1  1
 25 14  1  0
 25  3  1  0
 25  2  1  0
 26 10  1  0
 26 12  1  0
 26 23  1  0
 27 13  1  0
 27 12  1  0
 28 21  1  0
 28 22  1  0
 29  1  1  0
 30 17  1  0
 31 14  1  0
 32 31  1  0
 32  6  1  0
 33 18  1  0
 33 17  1  0
M  CHG  1  28   1
M  END
$$$$

     RDKit          3D

 46 52  0  0  0  0  0  0  0  0999 V2000
   22.6730   -2.2650    7.8530 C   0  0  0  0  0  0  0  0  0  0  0  0
   21.4560   -2.0550    7.1310 C   0  0  0  0  0  0  0  0  0  0  0  0
   21.3970   -1.1250    5.7360 C   0  0  0  0  0  0  0  0  0  0  0  0
   22.6400   -0.6800    5.5190 N   0  0  0  0  0  0  0  0  0  0  0  0
   23.7500   -1.6830    7.3340 N   0  0  0  0  0  0  0  0  0  0  0  0
   27.1360    0.8630    4.7980 C   0  0  0  0  0  0  0  0  0  0  0  0
   27.1770    0.8730    3.3020 C   0  0  1  0  0  0  0  0  0  0  0  0
   28.4620    0.8710    2.8670 F   0  0  0  0  0  0  0  0  0  0  0  0
   26.5170   -0.3830    2.8360 C   0  0  0  0  0  0  0  0  0  0  0  0
   26.8270   -1.3180    3.8670 N   0  0  0  0  0  0  0  0  0  0  0  0
   27.9330   -2.1630    3.4650 C   0  0  0  0  0  0  0  0  0  0  0  0
   28.7690   -2.3470    4.7500 C   0  0  0  0  0  0  0  0  0  0  0  0
   28.4890   -1.1040    5.5770 C   0  0  0  0  0  0  0  0  0  0  0  0
   27.1340   -0.6420    5.0680 C   0  0  1  0  0  0  0  0  0  0  0  0
   26.0430   -1.0060    6.1420 C   0  0  0  0  0  0  0  0  0  0  0  0
   24.8660   -0.3730    5.7480 O   0  0  0  0  0  0  0  0  0  0  0  0
   23.6840   -0.9580    6.2550 C   0  0  0  0  0  0  0  0  0  0  0  0
   20.0380   -1.1350    5.2730 C   0  0  0  0  0  0  0  0  0  0  0  0
   19.9970   -0.3450    4.1780 F   0  0  0  0  0  0  0  0  0  0  0  0
   22.7610   -3.0420    9.0600 N   0  0  0  0  0  0  0  0  0  0  0  0
   21.8360   -2.6690   10.0920 C   0  0  0  0  0  0  0  0  0  0  0  0
   22.5240   -2.3040   11.4140 C   0  0  0  0  0  0  0  0  0  0  0  0
   24.0970   -3.3530    9.4710 C   0  0  0  0  0  0  0  0  0  0  0  0
   24.0320   -4.1460   10.7590 C   0  0  0  0  0  0  0  0  0  0  0  0
   23.4160   -3.3650   11.8110 N   0  0  0  0  0  0  0  0  0  0  0  0
   23.6710   -3.5770   13.2380 C   0  0  0  0  0  0  0  0  0  0  0  0
   23.1180   -2.8210   14.0240 O   0  0  0  0  0  0  0  0  0  0  0  0
   24.5760   -4.6900   13.7950 C   0  0  2  0  0  0  0  0  0  0  0  0
   25.9070   -4.1290   14.2570 C   0  0  0  0  0  0  0  0  0  0  0  0
   24.7220   -5.7870   12.9070 O   0  0  0  0  0  0  0  0  0  0  0  0
   20.0370   -2.5700    7.3520 C   0  0  0  0  0  0  0  0  0  0  0  0
   19.0790   -2.3420    6.6550 N   0  0  0  0  0  0  0  0  0  0  0  0
   19.0760   -1.7170    5.7660 C   0  0  0  0  0  0  0  0  0  0  0  0
   17.7130   -1.5680    5.0410 C   0  0  1  0  0  0  0  0  0  0  0  0
   16.9800   -0.3940    5.0380 C   0  0  0  0  0  0  0  0  0  0  0  0
   17.4460   -2.5570    4.0690 C   0  0  0  0  0  0  0  0  0  0  0  0
   16.4150   -2.4210    3.1350 C   0  0  0  0  0  0  0  0  0  0  0  0
   15.8110   -1.1960    3.0330 C   0  0  0  0  0  0  0  0  0  0  0  0
   16.0280   -0.2260    4.0180 C   0  0  0  0  0  0  0  0  0  0  0  0
   15.2440    0.8950    3.8850 C   0  0  0  0  0  0  0  0  0  0  0  0
   15.4010    1.8980    4.8210 C   0  0  0  0  0  0  0  0  0  0  0  0
   16.3280    1.7610    5.8570 C   0  0  0  0  0  0  0  0  0  0  0  0
   16.4760    2.7450    6.7530 F   0  0  0  0  0  0  0  0  0  0  0  0
   17.1260    0.6420    5.9810 C   0  0  0  0  0  0  0  0  0  0  0  0
   18.1020    0.5670    7.1710 C   0  0  0  0  0  0  0  0  0  0  0  0
   18.8880    0.5190    8.1160 C   0  0  0  0  0  0  0  0  0  0  0  0
  2  1  1  0
  3  2  1  0
  4  3  1  0
  5  1  1  0
  7  6  1  0
  7  8  1  1
  9  7  1  0
 10  9  1  0
 11 10  1  0
 12 11  1  0
 13 12  1  0
 14 10  1  0
 14  6  1  0
 14 13  1  0
 14 15  1  1
 16 15  1  0
 17 16  1  0
 17  5  1  0
 17  4  1  0
 18  3  1  0
 19 18  1  0
 20  1  1  0
 21 20  1  0
 22 21  1  0
 23 20  1  0
 24 23  1  0
 25 24  1  0
 25 22  1  0
 26 25  1  0
 27 26  1  0
 28 26  1  0
 28 29  1  6
 30 28  1  0
 31  2  1  0
 32 31  1  0
 33 18  1  0
 33 32  1  0
 34 33  1  6
 35 34  1  0
 36 34  1  0
 37 36  1  0
 38 37  1  0
 39 38  1  0
 39 35  1  0
 40 39  1  0
 41 40  1  0
 42 41  1  0
 43 42  1  0
 44 42  1  0
 44 35  1  0
 45 44  1  0
 46 45  1  0
M  END
$$$$

     RDKit          3D

 13 14  0  0  0  0  0  0  0  0999 V2000
   24.5800    1.8160    4.6610 C   0  0  0  0  0  0  0  0  0  0  0  0
   23.8650    1.2850    3.6120 C   0  0  0  0  0  0  0  0  0  0  0  0
   24.4740    0.8560    2.4470 C   0  0  0  0  0  0  0  0  0  0  0  0
   25.9590    1.9060    4.5740 C   0  0  0  0  0  0  0  0  0  0  0  0
   26.6020    1.4810    3.4230 C   0  0  0  0  0  0  0  0  0  0  0  0
   25.8520    0.9700    2.3430 C   0  0  2  0  0  0  0  0  0  0  0  0
   29.8330    1.9660    2.1600 C   0  0  0  0  0  0  0  0  0  0  0  0
   26.4280    0.6580    1.1400 O   0  0  0  0  0  0  0  0  0  0  0  0
   27.7400    1.2260    0.9430 C   0  0  0  0  0  0  0  0  0  0  0  0
   28.5920    1.0900    2.1890 C   0  0  2  0  0  0  0  0  0  0  0  0
   27.9690    1.5940    3.3940 O   0  0  0  0  0  0  0  0  0  0  0  0
   22.1430    1.1470    3.7600 Cl  0  0  0  0  0  0  0  0  0  0  0  0
   30.7330    1.4420    1.1300 N   0  0  0  0  0  0  0  0  0  0  0  0
  2  1  1  0
  3  2  1  0
  4  1  1  0
  5  4  1  0
  6  5  1  0
  6  3  1  6
  8  6  1  0
  9  8  1  0
 10  9  1  0
 10  7  1  6
 11  5  1  0
 11 10  1  0
 12  2  1  0
 13  7  1  0
M  END
$$$$

     RDKit          3D

 28 31  0  0  0  0  0  0  0  0999 V2000
   19.1720   -0.5870    5.9070 C   0  0  0  0  0  0  0  0  0  0  0  0
   17.3350   -0.7170    4.3000 C   0  0  0  0  0  0  0  0  0  0  0  0
   15.6490    0.9760    4.1400 C   0  0  0  0  0  0  0  0  0  0  0  0
   19.2370   -1.0480    7.1870 C   0  0  2  0  0  0  0  0  0  0  0  0
   20.3180   -1.5670    7.7470 C   0  0  0  0  0  0  0  0  0  0  0  0
   23.2030   -1.6010   11.0000 C   0  0  0  0  0  0  0  0  0  0  0  0
   25.9950   -4.1140   13.9130 C   0  0  0  0  0  0  0  0  0  0  0  0
   23.7430   -2.1590   13.6130 O   0  0  0  0  0  0  0  0  0  0  0  0
   24.0190   -3.0930   12.8090 C   0  0  0  0  0  0  0  0  0  0  0  0
   23.7550   -2.8740   11.5100 N   0  0  0  0  0  0  0  0  0  0  0  0
   23.9940   -3.8910   10.4630 C   0  0  0  0  0  0  0  0  0  0  0  0
   24.2460   -3.2420    9.1370 C   0  0  0  0  0  0  0  0  0  0  0  0
   23.0080   -2.5900    8.8100 N   0  0  0  0  0  0  0  0  0  0  0  0
   22.7500   -2.2170    7.5210 C   0  0  0  0  0  0  0  0  0  0  0  0
   23.8180   -2.3810    6.6390 N   0  0  0  0  0  0  0  0  0  0  0  0
   23.7370   -1.9370    5.4100 C   0  0  0  0  0  0  0  0  0  0  0  0
   22.5740   -1.4370    4.9060 N   0  0  0  0  0  0  0  0  0  0  0  0
   21.4920   -1.2280    5.7400 C   0  0  1  0  0  0  0  0  0  0  0  0
   20.3370   -0.7100    5.1780 C   0  0  0  0  0  0  0  0  0  0  0  0
   17.9230   -0.0230    5.2950 C   0  0  1  0  0  0  0  0  0  0  0  0
   16.1830   -0.2280    3.6840 C   0  0  0  0  0  0  0  0  0  0  0  0
   16.1700    1.6450    5.1990 C   0  0  0  0  0  0  0  0  0  0  0  0
   17.3240    1.1360    5.8010 C   0  0  2  0  0  0  0  0  0  0  0  0
   17.9310    1.7980    6.8050 F   0  0  0  0  0  0  0  0  0  0  0  0
   21.4950   -1.7210    7.0290 C   0  0  2  0  0  0  0  0  0  0  0  0
   17.7570   -1.0320    8.2090 Cl  0  0  0  0  0  0  0  0  0  0  0  0
   22.2730   -1.9070    9.8780 C   0  0  0  0  0  0  0  0  0  0  0  0
   24.6010   -4.3820   13.3630 C   0  0  0  0  0  0  0  0  0  0  0  0
  4  1  1  0
  5  4  1  0
  9  8  1  0
 10  9  1  0
 10  6  1  0
 11 10  1  0
 12 11  1  0
 13 12  1  0
 14 13  1  0
 15 14  1  0
 16 15  1  0
 17 16  1  0
 18 17  1  0
 18 19  1  6
 19  1  1  0
 20  2  1  0
 20  1  1  1
 21  3  1  0
 21  2  1  0
 22  3  1  0
 23 22  1  0
 23 20  1  0
 23 24  1  6
 25 18  1  0
 25  5  1  1
 25 14  1  0
  4 26  1  6
 27 13  1  0
 27  6  1  0
 28  9  1  0
 28  7  1  0
M  END
$$$$

     RDKit          3D

 14 15  0  0  0  0  0  0  0  0999 V2000
   17.2240   -0.4680    5.0160 C   0  0  0  0  0  0  0  0  0  0  0  0
   16.4070    0.4830    4.4080 C   0  0  0  0  0  0  0  0  0  0  0  0
   16.3380    1.7820    4.9080 C   0  0  0  0  0  0  0  0  0  0  0  0
   16.4220   -1.8190    3.3900 C   0  0  0  0  0  0  0  0  0  0  0  0
   17.0840    2.1370    6.0100 C   0  0  0  0  0  0  0  0  0  0  0  0
   18.8540   -1.0920    6.8020 C   0  0  1  0  0  0  0  0  0  0  0  0
   17.9020    1.2020    6.6250 C   0  0  0  0  0  0  0  0  0  0  0  0
   17.9670   -0.0790    6.1410 C   0  0  0  0  0  0  0  0  0  0  0  0
   18.7090   -0.9930    8.1920 F   0  0  0  0  0  0  0  0  0  0  0  0
   18.5280   -2.3930    6.3840 F   0  0  0  0  0  0  0  0  0  0  0  0
   20.1590   -0.7800    6.4120 F   0  0  0  0  0  0  0  0  0  0  0  0
   16.2670   -2.9900    2.6690 N   0  0  0  0  0  0  0  0  0  0  0  0
   17.1830   -1.6790    4.4210 N   0  0  0  0  0  0  0  0  0  0  0  0
   15.6090   -0.2950    3.0460 S   0  0  0  0  0  0  0  0  0  0  0  0
  2  1  1  0
  3  2  1  0
  5  3  1  0
  7  5  1  0
  8  1  1  0
  8  7  1  0
  8  6  1  0
  6  9  1  1
 10  6  1  0
 11  6  1  0
 12  4  1  0
 13  4  1  0
 13  1  1  0
 14  4  1  0
 14  2  1  0
M  END
$$$$

     RDKit          3D

 24 25  0  0  0  0  0  0  0  0999 V2000
   26.3710    0.6150    3.7260 C   0  0  0  0  0  0  0  0  0  0  0  0
   28.7340    1.3890    2.4220 C   0  0  0  0  0  0  0  0  0  0  0  0
   17.3960   -0.5090    6.2150 C   0  0  0  0  0  0  0  0  0  0  0  0
   17.1220    0.9130    5.8180 C   0  0  0  0  0  0  0  0  0  0  0  0
   20.8460   -1.1060    4.6880 C   0  0  0  0  0  0  0  0  0  0  0  0
   21.6690   -0.1950    4.0260 C   0  0  0  0  0  0  0  0  0  0  0  0
   21.6610   -2.1510    5.1350 C   0  0  0  0  0  0  0  0  0  0  0  0
   24.1070   -0.1420    3.5330 C   0  0  2  0  0  0  0  0  0  0  0  0
   24.1540    0.0470    2.1630 C   0  0  0  0  0  0  0  0  0  0  0  0
   25.2960    0.5390    1.5660 C   0  0  0  0  0  0  0  0  0  0  0  0
   26.4040    0.8150    2.3440 C   0  0  0  0  0  0  0  0  0  0  0  0
   25.2150    0.1330    4.3320 C   0  0  0  0  0  0  0  0  0  0  0  0
   21.2750    1.1060    3.3820 C   0  0  2  0  0  0  0  0  0  0  0  0
   19.3760   -0.9360    4.8600 C   0  0  1  0  0  0  0  0  0  0  0  0
   15.8230    1.3110    5.2060 C   0  0  0  0  0  0  0  0  0  0  0  0
   22.1910    2.0240    3.6450 F   0  0  0  0  0  0  0  0  0  0  0  0
   20.1130    1.5530    3.8310 F   0  0  0  0  0  0  0  0  0  0  0  0
   21.1580    0.9550    2.0550 F   0  0  0  0  0  0  0  0  0  0  0  0
   22.9100   -0.6840    4.0840 N   0  0  0  0  0  0  0  0  0  0  0  0
   22.9330   -1.8810    4.7350 N   0  0  0  0  0  0  0  0  0  0  0  0
   18.8030   -0.7850    6.1580 N   0  0  0  0  0  0  0  0  0  0  0  0
   27.5380    1.3090    1.7340 O   0  0  0  0  0  0  0  0  0  0  0  0
   18.6420   -0.8680    3.8830 O   0  0  0  0  0  0  0  0  0  0  0  0
   14.4670    1.4040    6.3160 S   0  0  0  0  0  0  0  0  0  0  0  0
  4  3  1  0
  6  5  1  0
  7  5  1  0
  9  8  1  0
 10  9  1  0
 11 10  1  0
 11  1  1  0
 12  8  1  0
 12  1  1  0
 13  6  1  0
 14  5  1  0
 15  4  1  0
 13 16  1  6
 17 13  1  0
 18 13  1  0
 19  6  1  0
  8 19  1  6
 20  7  1  0
 20 19  1  0
 21 14  1  0
 21  3  1  0
 22 11  1  0
 22  2  1  0
 14 23  1  6
 24 15  1  0
M  END
$$$$

     RDKit          3D

 39 43  0  0  0  0  0  0  0  0999 V2000
   22.7580    2.1170    4.3090 C   0  0  0  0  0  0  0  0  0  0  0  0
   23.7710    0.9690    4.2550 C   0  0  2  0  0  0  0  0  0  0  0  0
   25.1480    1.4710    3.7960 C   0  0  0  0  0  0  0  0  0  0  0  0
   23.2490   -0.0840    3.2680 C   0  0  0  0  0  0  0  0  0  0  0  0
   23.2020    0.1540    1.8800 C   0  0  0  0  0  0  0  0  0  0  0  0
   22.7210   -0.8260    1.0190 C   0  0  0  0  0  0  0  0  0  0  0  0
   22.2790   -2.0490    1.5140 C   0  0  0  0  0  0  0  0  0  0  0  0
   22.3200   -2.2850    2.8870 C   0  0  0  0  0  0  0  0  0  0  0  0
   22.8040   -1.3010    3.7590 C   0  0  0  0  0  0  0  0  0  0  0  0
   22.8150   -1.6060    5.1330 N   0  0  0  0  0  0  0  0  0  0  0  0
   21.6340   -1.4920    5.8950 C   0  0  0  0  0  0  0  0  0  0  0  0
   20.4520   -1.0230    5.3130 C   0  0  0  0  0  0  0  0  0  0  0  0
   23.9760   -2.1010    5.7310 C   0  0  0  0  0  0  0  0  0  0  0  0
   25.0090   -2.2200    5.0750 O   0  0  0  0  0  0  0  0  0  0  0  0
   23.9870   -2.4390    7.0230 N   0  0  0  0  0  0  0  0  0  0  0  0
   22.8860   -2.3310    7.7880 C   0  0  0  0  0  0  0  0  0  0  0  0
   23.0610   -2.6810    9.1290 N   0  0  0  0  0  0  0  0  0  0  0  0
   22.2520   -1.9990   10.1650 C   0  0  0  0  0  0  0  0  0  0  0  0
   23.0610   -1.7590   11.4300 C   0  0  0  0  0  0  0  0  0  0  0  0
   24.2210   -3.5280    9.5200 C   0  0  0  0  0  0  0  0  0  0  0  0
   24.0930   -4.0650   10.9350 C   0  0  0  0  0  0  0  0  0  0  0  0
   23.6940   -3.0100   11.9100 N   0  0  0  0  0  0  0  0  0  0  0  0
   23.9230   -3.1800   13.2250 C   0  0  0  0  0  0  0  0  0  0  0  0
   23.5990   -2.3090   14.0370 O   0  0  0  0  0  0  0  0  0  0  0  0
   24.6130   -4.4560   13.7320 C   0  0  0  0  0  0  0  0  0  0  0  0
   25.9920   -4.1120   14.3050 C   0  0  0  0  0  0  0  0  0  0  0  0
   21.6730   -1.8560    7.2410 C   0  0  0  0  0  0  0  0  0  0  0  0
   20.4940   -1.7240    7.9840 C   0  0  0  0  0  0  0  0  0  0  0  0
   19.3140   -1.2510    7.3970 C   0  0  0  0  0  0  0  0  0  0  0  0
   17.8780   -1.1480    8.3570 Cl  0  0  0  0  0  0  0  0  0  0  0  0
   19.2740   -0.8880    6.0460 C   0  0  0  0  0  0  0  0  0  0  0  0
   18.1260   -0.3940    5.3950 C   0  0  1  0  0  0  0  0  0  0  0  0
   17.6310    0.8900    5.6800 C   0  0  0  0  0  0  0  0  0  0  0  0
   18.2090    1.6420    6.6370 F   0  0  0  0  0  0  0  0  0  0  0  0
   16.5020    1.3950    5.0230 C   0  0  0  0  0  0  0  0  0  0  0  0
   15.8880    0.6330    4.0340 C   0  0  0  0  0  0  0  0  0  0  0  0
   16.3880   -0.6210    3.7260 C   0  0  0  0  0  0  0  0  0  0  0  0
   17.5040   -1.1330    4.3890 C   0  0  0  0  0  0  0  0  0  0  0  0
   17.9820   -2.3630    4.0850 O   0  0  0  0  0  0  0  0  0  0  0  0
  2  1  1  6
  3  2  1  0
  4  2  1  0
  5  4  1  0
  6  5  1  0
  7  6  1  0
  8  7  1  0
  9  8  1  0
  9  4  1  0
 10  9  1  0
 11 10  1  0
 12 11  1  0
 13 10  1  0
 14 13  1  0
 15 13  1  0
 16 15  1  0
 17 16  1  0
 18 17  1  0
 19 18  1  0
 20 17  1  0
 21 20  1  0
 22 21  1  0
 22 19  1  0
 23 22  1  0
 24 23  1  0
 25 23  1  0
 26 25  1  0
 27 11  1  0
 27 16  1  0
 28 27  1  0
 29 28  1  0
 30 29  1  0
 31 12  1  0
 31 29  1  0
 32 31  1  6
 33 32  1  0
 34 33  1  0
 35 33  1  0
 36 35  1  0
 37 36  1  0
 38 37  1  0
 38 32  1  0
 39 38  1  0
M  END
$$$$

     RDKit          3D

 57 63  0  0  0  0  0  0  0  0999 V2000
   22.6480   -0.6350    5.5490 N   0  0  0  0  0  0  0  0  0  0  0  0
   19.0420   -0.9710    6.1490 C   0  0  2  0  0  0  0  0  0  0  0  0
   19.0430   -1.6540    7.3610 C   0  0  0  0  0  0  0  0  0  0  0  0
   23.8750   -1.6740    7.3170 N   0  0  0  0  0  0  0  0  0  0  0  0
   20.2050   -2.0100    7.9930 C   0  0  0  0  0  0  0  0  0  0  0  0
   24.8540   -0.6320    5.5040 O   0  0  0  0  0  0  0  0  0  0  0  0
   15.9960    0.5240    4.4490 C   0  0  0  0  0  0  0  0  0  0  0  0
   17.0710    0.4330    5.3490 C   0  0  0  0  0  0  0  0  0  0  0  0
   17.3810    1.6170    6.2550 C   0  0  2  0  0  0  0  0  0  0  0  0
   22.9160   -2.6990    9.1830 N   0  0  0  0  0  0  0  0  0  0  0  0
   17.7850   -0.7820    5.3840 C   0  0  1  0  0  0  0  0  0  0  0  0
   16.4190   -1.7520    3.7830 C   0  0  0  0  0  0  0  0  0  0  0  0
   15.6680   -0.5840    3.6720 C   0  0  0  0  0  0  0  0  0  0  0  0
   24.1630   -2.5790   11.7220 N   0  0  0  0  0  0  0  0  0  0  0  0
   17.4580   -1.8470    4.6380 N   0  0  0  0  0  0  0  0  0  0  0  0
   15.1840    1.7760    4.2580 C   0  0  0  0  0  0  0  0  0  0  0  0
   23.8280   -2.4010   13.9360 O   0  0  0  0  0  0  0  0  0  0  0  0
   21.4710   -1.6760    7.4230 C   0  0  0  0  0  0  0  0  0  0  0  0
   21.4980   -0.9640    6.1980 C   0  0  0  0  0  0  0  0  0  0  0  0
   20.2650   -0.6090    5.6140 C   0  0  0  0  0  0  0  0  0  0  0  0
   23.7570   -1.0130    6.1620 C   0  0  0  0  0  0  0  0  0  0  0  0
   22.7670   -2.0170    7.9680 C   0  0  0  0  0  0  0  0  0  0  0  0
   24.0350   -3.5940    9.5010 C   0  0  0  0  0  0  0  0  0  0  0  0
   24.9400   -2.9760   10.5450 C   0  0  0  0  0  0  0  0  0  0  0  0
   23.0880   -1.6470   11.4010 C   0  0  0  0  0  0  0  0  0  0  0  0
   22.1270   -2.2670   10.3960 C   0  0  2  0  0  0  0  0  0  0  0  0
   21.3250   -3.4080   11.0170 C   0  0  0  0  0  0  0  0  0  0  0  0
   24.3600   -2.9860   12.9930 C   0  0  2  0  0  0  0  0  0  0  0  0
   25.3470   -4.0540   13.2300 C   0  0  0  0  0  0  0  0  0  0  0  0
   26.1930   -3.9590   14.2380 C   0  0  0  0  0  0  0  0  0  0  0  0
   27.1820   -4.9600   14.6350 C   0  0  0  0  0  0  0  0  0  0  0  0
   28.0090   -4.7170   15.7190 C   0  0  0  0  0  0  0  0  0  0  0  0
   28.9330   -5.6760   16.1110 C   0  0  0  0  0  0  0  0  0  0  0  0
   28.9970   -6.8740   15.3940 C   0  0  0  0  0  0  0  0  0  0  0  0
   28.1240   -7.0270   14.3290 C   0  0  0  0  0  0  0  0  0  0  0  0
   29.9900   -7.9580   15.7370 C   0  0  0  0  0  0  0  0  0  0  0  0
   29.8430   -5.3960   17.2720 C   0  0  0  0  0  0  0  0  0  0  0  0
   31.7870   -4.9890   15.9400 C   0  0  0  0  0  0  0  0  0  0  0  0
   31.5120   -3.9230   18.0730 C   0  0  0  0  0  0  0  0  0  0  0  0
   26.1200   -0.9730    6.0850 C   0  0  0  0  0  0  0  0  0  0  0  0
   27.1950   -0.4910    5.1230 C   0  0  2  0  0  0  0  0  0  0  0  0
   28.5960   -1.0060    5.4850 C   0  0  0  0  0  0  0  0  0  0  0  0
   29.2480   -1.2880    4.1380 C   0  0  0  0  0  0  0  0  0  0  0  0
   28.1190   -1.7040    3.2240 C   0  0  0  0  0  0  0  0  0  0  0  0
   26.4830    0.1480    2.9370 C   0  0  0  0  0  0  0  0  0  0  0  0
   27.0720    1.3500    3.6310 C   0  0  0  0  0  0  0  0  0  0  0  0
   27.5190    2.4510    3.0530 C   0  0  0  0  0  0  0  0  0  0  0  0
   27.1040    1.0430    5.1010 C   0  0  0  0  0  0  0  0  0  0  0  0
   17.9520    2.6380    5.6230 F   0  0  0  0  0  0  0  0  0  0  0  0
   18.1800    1.3290    7.2860 F   0  0  0  0  0  0  0  0  0  0  0  0
   16.2970    2.1470    6.8060 F   0  0  0  0  0  0  0  0  0  0  0  0
   20.2980    0.1530    4.5130 F   0  0  0  0  0  0  0  0  0  0  0  0
   27.2300   -6.1120   13.9300 N   0  0  0  0  0  0  0  0  0  0  0  0
   30.8400   -4.4190   16.8930 N   0  0  0  0  0  0  0  0  0  0  0  0
   26.9230   -1.0100    3.7370 N   0  0  0  0  0  0  0  0  0  0  0  0
   16.1720   -2.8390    3.0220 N   0  0  0  0  0  0  0  0  0  0  0  0
   17.5200   -2.0610    8.0860 Cl  0  0  0  0  0  0  0  0  0  0  0  0
  2  3  1  6
  5  3  1  0
  8  7  1  0
  9  8  1  0
 11  8  1  0
 11  2  1  0
 13  7  1  0
 13 12  1  0
 15 12  1  0
 11 15  1  6
 16  7  1  0
 18  5  1  0
 19 18  1  0
 19  1  1  0
 20 19  1  0
 20  2  1  0
 21  6  1  0
 21  4  1  0
 21  1  1  0
 22 18  1  0
 22 10  1  0
 22  4  1  0
 23 10  1  0
 24 23  1  0
 24 14  1  0
 25 14  1  0
 26 10  1  0
 26 25  1  0
 26 27  1  1
 28 17  1  1
 28 14  1  0
 29 28  1  0
 30 29  1  0
 31 30  1  0
 32 31  1  0
 33 32  1  0
 34 33  1  0
 35 34  1  0
 36 34  1  0
 37 33  1  0
 40  6  1  0
 41 40  1  1
 42 41  1  0
 43 42  1  0
 44 43  1  0
 46 45  1  0
 47 46  1  0
 48 46  1  0
 48 41  1  0
  9 49  1  6
 50  9  1  0
 51  9  1  0
 52 20  1  0
 53 31  1  0
 53 35  1  0
 54 38  1  0
 54 39  1  0
 54 37  1  0
 55 45  1  0
 55 41  1  0
 55 44  1  0
 56 12  1  0
 57  3  1  0
M  END
$$$$

     RDKit          3D

 30 33  0  0  0  0  0  0  0  0999 V2000
   21.4990   -0.8820    2.9010 C   0  0  0  0  0  0  0  0  0  0  0  0
   21.3450   -0.8500    4.0570 C   0  0  0  0  0  0  0  0  0  0  0  0
   21.1610   -0.8200    5.4740 C   0  0  0  0  0  0  0  0  0  0  0  0
   22.2810   -1.0040    6.2780 C   0  0  0  0  0  0  0  0  0  0  0  0
   22.1350   -0.9800    7.6630 C   0  0  0  0  0  0  0  0  0  0  0  0
   23.4480   -1.2140    8.4160 C   0  0  0  0  0  0  0  0  0  0  0  0
   23.1510   -2.1060    9.5500 N   0  0  0  0  0  0  0  0  0  0  0  0
   24.3360   -2.9020    9.9110 C   0  0  0  0  0  0  0  0  0  0  0  0
   23.9910   -3.8930   11.0370 C   0  0  0  0  0  0  0  0  0  0  0  0
   23.3690   -3.1570   12.1710 N   0  0  0  0  0  0  0  0  0  0  0  0
   23.7690   -3.3610   13.4370 C   0  0  0  0  0  0  0  0  0  0  0  0
   23.2510   -2.7430   14.3720 O   0  0  0  0  0  0  0  0  0  0  0  0
   24.8720   -4.3780   13.7520 C   0  0  0  0  0  0  0  0  0  0  0  0
   26.1070   -3.9390   14.5410 C   0  0  0  0  0  0  0  0  0  0  0  0
   22.2960   -2.1910   11.8510 C   0  0  0  0  0  0  0  0  0  0  0  0
   22.7500   -1.2830   10.7030 C   0  0  2  0  0  0  0  0  0  0  0  0
   21.6740   -0.2420   10.3270 C   0  0  0  0  0  0  0  0  0  0  0  0
   20.5780   -0.7300    9.5690 O   0  0  0  0  0  0  0  0  0  0  0  0
   20.8820   -0.7740    8.2380 C   0  0  0  0  0  0  0  0  0  0  0  0
   19.7650   -0.5880    7.4370 C   0  0  0  0  0  0  0  0  0  0  0  0
   18.5670   -0.3890    8.0200 F   0  0  0  0  0  0  0  0  0  0  0  0
   19.9030   -0.6000    6.0420 C   0  0  2  0  0  0  0  0  0  0  0  0
   18.7950   -0.4550    5.2110 C   0  0  0  0  0  0  0  0  0  0  0  0
   18.1660    0.7550    4.9890 C   0  0  0  0  0  0  0  0  0  0  0  0
   18.7500    2.1720    5.7760 Cl  0  0  0  0  0  0  0  0  0  0  0  0
   17.0580    0.8180    4.1400 C   0  0  0  0  0  0  0  0  0  0  0  0
   16.5750   -0.3300    3.5130 C   0  0  0  0  0  0  0  0  0  0  0  0
   17.2070   -1.5480    3.7350 C   0  0  0  0  0  0  0  0  0  0  0  0
   18.3110   -1.6050    4.5800 C   0  0  0  0  0  0  0  0  0  0  0  0
   18.9280   -2.7960    4.7990 O   0  0  0  0  0  0  0  0  0  0  0  0
  2  1  1  0
  3  2  1  0
  4  3  1  0
  5  4  1  0
  6  5  1  0
  7  6  1  0
  8  7  1  0
  9  8  1  0
 10  9  1  0
 11 10  1  0
 12 11  1  0
 13 11  1  0
 14 13  1  0
 15 10  1  0
 16  7  1  0
 16 15  1  1
 17 16  1  0
 18 17  1  0
 19 18  1  0
 19  5  1  0
 20 19  1  0
 21 20  1  0
 22 20  1  0
 22  3  1  0
 22 23  1  6
 24 23  1  0
 25 24  1  0
 26 24  1  0
 27 26  1  0
 28 27  1  0
 29 28  1  0
 29 23  1  0
 30 29  1  0
M  END
$$$$

     RDKit          3D

 33 37  0  0  0  0  0  0  0  0999 V2000
   27.7480    0.9620    2.2220 C   0  0  0  0  0  0  0  0  0  0  0  0
   27.1840    0.0850    1.1550 C   0  0  0  0  0  0  0  0  0  0  0  0
   27.7990   -1.2190    1.4960 C   0  0  0  0  0  0  0  0  0  0  0  0
   26.3780    0.3920    4.3260 C   0  0  2  0  0  0  0  0  0  0  0  0
   24.0580   -0.5050    5.4320 N   0  0  0  0  0  0  0  0  0  0  0  0
   25.1900   -1.0100    5.9040 C   0  0  0  0  0  0  0  0  0  0  0  0
   15.7670    1.6090    4.8840 C   0  0  0  0  0  0  0  0  0  0  0  0
   17.8010    1.5920    6.3050 C   0  0  0  0  0  0  0  0  0  0  0  0
   17.2540   -0.4520    4.9580 C   0  0  0  0  0  0  0  0  0  0  0  0
   17.3850   -1.7380    4.3560 C   0  0  0  0  0  0  0  0  0  0  0  0
   16.4220   -1.9910    3.3810 C   0  0  0  0  0  0  0  0  0  0  0  0
   17.9290   -0.7180    7.3480 C   0  0  0  0  0  0  0  0  0  0  0  0
   21.6140   -0.4320    5.5970 C   0  0  0  0  0  0  0  0  0  0  0  0
   28.8640   -2.1070    3.5800 C   0  0  0  0  0  0  0  0  0  0  0  0
   22.9280   -0.9610    5.9910 C   0  0  2  0  0  0  0  0  0  0  0  0
   25.2560   -1.9500    6.9280 C   0  0  0  0  0  0  0  0  0  0  0  0
   16.3090    1.8820    6.2710 C   0  0  0  0  0  0  0  0  0  0  0  0
   18.1370    0.0960    6.0630 C   0  0  2  0  0  0  0  0  0  0  0  0
   16.1930    0.2340    4.4590 C   0  0  0  0  0  0  0  0  0  0  0  0
   19.5850   -0.0100    5.6860 C   0  0  0  0  0  0  0  0  0  0  0  0
   27.6490    0.1390    3.5100 C   0  0  1  0  0  0  0  0  0  0  0  0
   18.3940   -2.7040    4.6530 C   0  0  0  0  0  0  0  0  0  0  0  0
   26.3410    1.7660    4.9590 C   0  0  0  0  0  0  0  0  0  0  0  0
   24.0300   -2.3220    7.4420 C   0  0  0  0  0  0  0  0  0  0  0  0
   22.8590   -1.8490    6.9970 N   0  0  0  0  0  0  0  0  0  0  0  0
   27.7580   -1.2860    2.9970 N   0  0  1  0  0  0  0  0  0  0  0  0
   21.4340    0.3310    4.5500 N   0  0  0  0  0  0  0  0  0  0  0  0
   20.4770   -0.6610    6.3380 N   0  0  0  0  0  0  0  0  0  0  0  0
   16.2770   -3.1010    2.6130 N   0  0  0  0  0  0  0  0  0  0  0  0
   19.1850   -3.5070    4.8550 N   0  0  0  0  0  0  0  0  0  0  0  0
   20.0320    0.6230    4.6000 O   0  0  0  0  0  0  0  0  0  0  0  0
   26.3770   -0.6210    5.3720 O   0  0  0  0  0  0  0  0  0  0  0  0
   15.3640   -0.6340    3.2090 S   0  0  0  0  0  0  0  0  0  0  0  0
  2  1  1  0
  3  2  1  0
  6  5  1  0
 10  9  1  0
 11 10  1  0
 15 13  1  1
 15  5  1  0
 16  6  1  0
 17  7  1  0
 17  8  1  0
 18  9  1  0
 18 12  1  1
 18  8  1  0
 19  7  1  0
 19  9  1  0
 20 18  1  0
 21  4  1  0
 21  1  1  6
 22 10  1  0
  4 23  1  1
 24 16  1  0
 25 24  1  0
 25 15  1  0
 26 21  1  0
 26 14  1  1
 26  3  1  0
 27 13  1  0
 28 20  1  0
 28 13  1  0
 29 11  1  0
 30 22  1  0
 31 27  1  0
 31 20  1  0
 32  4  1  0
 32  6  1  0
 33 19  1  0
 33 11  1  0
M  CHG  1  26   1
M  END
$$$$

     RDKit          3D

 29 31  0  0  0  0  0  0  0  0999 V2000
   26.1310   -4.1210   14.9100 C   0  0  0  0  0  0  0  0  0  0  0  0
   24.9450   -4.4300   13.9980 C   0  0  0  0  0  0  0  0  0  0  0  0
   24.2260   -3.1730   13.5060 C   0  0  0  0  0  0  0  0  0  0  0  0
   23.6580   -2.4670   14.2700 O   0  0  0  0  0  0  0  0  0  0  0  0
   24.2280   -2.8300   12.0990 N   0  0  0  0  0  0  0  0  0  0  0  0
   23.6520   -1.7210   11.2840 C   0  0  0  0  0  0  0  0  0  0  0  0
   23.9720   -2.4810   10.0510 C   0  0  1  0  0  0  0  0  0  0  0  0
   24.7980   -3.4210   10.8510 C   0  0  0  0  0  0  0  0  0  0  0  0
   22.7890   -3.1120    9.4940 N   0  0  0  0  0  0  0  0  0  0  0  0
   22.1850   -2.6010    8.2760 C   0  0  0  0  0  0  0  0  0  0  0  0
   22.6570   -1.6630    7.7240 O   0  0  0  0  0  0  0  0  0  0  0  0
   20.9360   -3.2890    7.7170 C   0  0  0  0  0  0  0  0  0  0  0  0
   20.6600   -2.7730    6.4400 O   0  0  0  0  0  0  0  0  0  0  0  0
   19.8400   -1.6300    6.3810 C   0  0  0  0  0  0  0  0  0  0  0  0
   19.1160   -1.1910    7.4900 C   0  0  0  0  0  0  0  0  0  0  0  0
   18.3130   -0.0590    7.4000 C   0  0  0  0  0  0  0  0  0  0  0  0
   18.2360    0.6310    6.1960 C   0  0  0  0  0  0  0  0  0  0  0  0
   17.1250    2.2080    6.0330 Br  0  0  0  0  0  0  0  0  0  0  0  0
   18.9520    0.1990    5.0910 C   0  0  0  0  0  0  0  0  0  0  0  0
   19.7500   -0.9340    5.1790 C   0  0  0  0  0  0  0  0  0  0  0  0
   20.5010   -1.3700    4.0160 N   0  0  0  0  0  0  0  0  0  0  0  0
   19.8620   -1.6750    2.7480 C   0  0  0  0  0  0  0  0  0  0  0  0
   18.6890   -1.5760    2.6110 O   0  0  0  0  0  0  0  0  0  0  0  0
   20.7340   -2.1130    1.5770 C   0  0  0  0  0  0  0  0  0  0  0  0
   20.3280   -2.3000    0.2670 C   0  0  0  0  0  0  0  0  0  0  0  0
   21.4480   -2.6850   -0.4510 C   0  0  0  0  0  0  0  0  0  0  0  0
   21.4900   -3.0030   -1.9400 C   0  0  0  0  0  0  0  0  0  0  0  0
   22.4720   -2.7270    0.3820 N   0  0  0  0  0  0  0  0  0  0  0  0
   22.0510   -2.3790    1.6270 O   0  0  0  0  0  0  0  0  0  0  0  0
  2  1  1  0
  3  2  1  0
  4  3  1  0
  5  3  1  0
  6  5  1  0
  7  6  1  0
  8  7  1  0
  8  5  1  0
  7  9  1  1
 10  9  1  0
 11 10  1  0
 12 10  1  0
 13 12  1  0
 14 13  1  0
 15 14  1  0
 16 15  1  0
 17 16  1  0
 18 17  1  0
 19 17  1  0
 20 19  1  0
 20 14  1  0
 21 20  1  0
 22 21  1  0
 23 22  1  0
 24 22  1  0
 25 24  1  0
 26 25  1  0
 27 26  1  0
 28 26  1  0
 29 24  1  0
 29 28  1  0
M  END
$$$$

     RDKit          3D

 36 40  0  0  0  0  0  0  0  0999 V2000
   26.3660   -4.4630   14.1730 C   0  0  0  0  0  0  0  0  0  0  0  0
   24.8970   -4.2950   14.5520 C   0  0  0  0  0  0  0  0  0  0  0  0
   24.1740   -3.1380   13.8430 C   0  0  0  0  0  0  0  0  0  0  0  0
   23.6460   -2.2980   14.4940 O   0  0  0  0  0  0  0  0  0  0  0  0
   24.1090   -3.0490   12.3860 N   0  0  0  0  0  0  0  0  0  0  0  0
   24.6200   -3.8650   11.2410 C   0  0  0  0  0  0  0  0  0  0  0  0
   24.0470   -2.8850   10.2850 C   0  0  2  0  0  0  0  0  0  0  0  0
   23.4980   -2.0900   11.4160 C   0  0  0  0  0  0  0  0  0  0  0  0
   23.0110   -3.4910    9.4360 N   0  0  0  0  0  0  0  0  0  0  0  0
   22.3710   -2.7190    8.3640 C   0  0  0  0  0  0  0  0  0  0  0  0
   22.6830   -1.5890    8.1800 O   0  0  0  0  0  0  0  0  0  0  0  0
   21.2930   -3.3830    7.4810 C   0  0  0  0  0  0  0  0  0  0  0  0
   20.9480   -2.4660    6.3930 N   0  0  0  0  0  0  0  0  0  0  0  0
   21.4850   -2.4910    5.1770 C   0  0  0  0  0  0  0  0  0  0  0  0
   20.9130   -1.4590    4.4230 C   0  0  0  0  0  0  0  0  0  0  0  0
   21.2480   -1.1180    2.9500 C   0  0  0  0  0  0  0  0  0  0  0  0
   20.9120   -1.8650    2.0940 O   0  0  0  0  0  0  0  0  0  0  0  0
   21.9800    0.1030    2.6160 N   0  0  0  0  0  0  0  0  0  0  0  0
   22.3550    0.4630    1.2390 C   0  0  0  0  0  0  0  0  0  0  0  0
   23.8730    0.4810    1.0840 C   0  0  0  0  0  0  0  0  0  0  0  0
   24.6410    0.9740    2.3180 C   0  0  0  0  0  0  0  0  0  0  0  0
   26.0660    1.1380    2.2450 C   0  0  0  0  0  0  0  0  0  0  0  0
   26.7390    0.8470    1.0440 O   0  0  0  0  0  0  0  0  0  0  0  0
   28.1400    0.9520    1.0680 C   0  0  0  0  0  0  0  0  0  0  0  0
   26.7680    1.5900    3.3650 C   0  0  0  0  0  0  0  0  0  0  0  0
   26.1040    1.8800    4.5540 C   0  0  0  0  0  0  0  0  0  0  0  0
   24.7220    1.7190    4.6320 C   0  0  0  0  0  0  0  0  0  0  0  0
   23.9980    1.2610    3.4880 C   0  0  0  0  0  0  0  0  0  0  0  0
   22.4550    1.0850    3.6190 C   0  0  0  0  0  0  0  0  0  0  0  0
   19.9900   -0.7960    5.2760 C   0  0  0  0  0  0  0  0  0  0  0  0
   19.1220    0.3070    5.1000 C   0  0  0  0  0  0  0  0  0  0  0  0
   18.3240    0.7190    6.1720 C   0  0  0  0  0  0  0  0  0  0  0  0
   17.1280    2.2260    5.9480 Br  0  0  0  0  0  0  0  0  0  0  0  0
   18.3760    0.0560    7.4090 C   0  0  0  0  0  0  0  0  0  0  0  0
   19.2310   -1.0300    7.5810 C   0  0  0  0  0  0  0  0  0  0  0  0
   20.0460   -1.4540    6.4920 C   0  0  0  0  0  0  0  0  0  0  0  0
  2  1  1  0
  3  2  1  0
  4  3  1  0
  5  3  1  0
  6  5  1  0
  7  6  1  0
  8  7  1  0
  8  5  1  0
  7  9  1  6
 10  9  1  0
 11 10  1  0
 12 10  1  0
 13 12  1  0
 14 13  1  0
 15 14  1  0
 16 15  1  0
 17 16  1  0
 18 16  1  0
 19 18  1  0
 20 19  1  0
 21 20  1  0
 22 21  1  0
 23 22  1  0
 24 23  1  0
 25 22  1  0
 26 25  1  0
 27 26  1  0
 28 27  1  0
 28 21  1  0
 29 28  1  0
 29 18  1  0
 30 15  1  0
 31 30  1  0
 32 31  1  0
 33 32  1  0
 34 32  1  0
 35 34  1  0
 36 30  1  0
 36 35  1  0
 36 13  1  0
M  END
$$$$

     RDKit          3D

 28 31  0  0  0  0  0  0  0  0999 V2000
   19.2510   -0.7140    6.0680 C   0  0  2  0  0  0  0  0  0  0  0  0
   17.1980   -0.9590    4.6670 C   0  0  0  0  0  0  0  0  0  0  0  0
   15.6070    0.8350    4.4130 C   0  0  0  0  0  0  0  0  0  0  0  0
   19.3550   -1.1680    7.3740 C   0  0  0  0  0  0  0  0  0  0  0  0
   20.5140   -1.6460    7.8680 C   0  0  0  0  0  0  0  0  0  0  0  0
   24.7750   -3.8080   10.3520 C   0  0  0  0  0  0  0  0  0  0  0  0
   26.2940   -4.2260   14.0460 C   0  0  0  0  0  0  0  0  0  0  0  0
   23.8970   -2.3580   13.5970 O   0  0  0  0  0  0  0  0  0  0  0  0
   24.3280   -3.1790   12.7980 C   0  0  0  0  0  0  0  0  0  0  0  0
   24.2350   -2.9810   11.4670 N   0  0  0  0  0  0  0  0  0  0  0  0
   23.7020   -1.6980   11.0230 C   0  0  0  0  0  0  0  0  0  0  0  0
   22.6310   -1.9030    9.9980 C   0  0  0  0  0  0  0  0  0  0  0  0
   23.1620   -2.5950    8.8540 N   0  0  0  0  0  0  0  0  0  0  0  0
   22.9760   -2.1390    7.5610 C   0  0  0  0  0  0  0  0  0  0  0  0
   24.0720   -2.1320    6.7460 N   0  0  0  0  0  0  0  0  0  0  0  0
   23.8290   -1.6370    5.5090 C   0  0  0  0  0  0  0  0  0  0  0  0
   22.7020   -1.1690    4.9760 N   0  0  0  0  0  0  0  0  0  0  0  0
   21.6210   -1.1910    5.7880 C   0  0  0  0  0  0  0  0  0  0  0  0
   20.3810   -0.7020    5.2760 C   0  0  0  0  0  0  0  0  0  0  0  0
   18.0020   -0.1630    5.5020 C   0  0  0  0  0  0  0  0  0  0  0  0
   16.0230   -0.4580    4.1280 C   0  0  0  0  0  0  0  0  0  0  0  0
   16.3790    1.6550    5.2590 C   0  0  0  0  0  0  0  0  0  0  0  0
   17.5490    1.1280    5.7800 C   0  0  0  0  0  0  0  0  0  0  0  0
   18.3240    1.8880    6.5970 F   0  0  0  0  0  0  0  0  0  0  0  0
   21.6880   -1.6610    7.1030 C   0  0  0  0  0  0  0  0  0  0  0  0
   17.9450   -1.1800    8.3990 Cl  0  0  0  0  0  0  0  0  0  0  0  0
   23.7950   -3.8850    9.1530 C   0  0  0  0  0  0  0  0  0  0  0  0
   24.9620   -4.4700   13.2710 C   0  0  0  0  0  0  0  0  0  0  0  0
  4  1  1  0
  5  4  1  0
  9  8  1  0
 10  6  1  0
 10  9  1  0
 11 10  1  0
 12 11  1  0
 13 12  1  0
 14 13  1  0
 15 14  1  0
 16 15  1  0
 17 16  1  0
 18 17  1  0
 19 18  1  0
 19  1  1  0
 20  2  1  0
  1 20  1  1
 21  3  1  0
 21  2  1  0
 22  3  1  0
 23 22  1  0
 23 20  1  0
 24 23  1  0
 25 18  1  0
 25  5  1  0
 25 14  1  0
 26  4  1  0
 27 13  1  0
 27  6  1  0
 28  9  1  0
 28  7  1  0
M  END
$$$$

     RDKit          3D

 72 80  0  0  0  0  0  0  0  0999 V2000
   23.1250   -2.7890   -5.8400 N   0  0  0  0  0  0  0  0  0  0  0  0
   23.2230   -2.1810   -3.7090 C   0  0  0  0  0  0  0  0  0  0  0  0
   21.0610   -1.8190   -5.0080 C   0  0  2  0  0  0  0  0  0  0  0  0
   21.0310   -0.2900   -4.9380 C   0  0  0  0  0  0  0  0  0  0  0  0
   20.0600   -2.4520   -4.0160 C   0  0  2  0  0  0  0  0  0  0  0  0
   26.3270   -2.4540   -1.0610 C   0  0  0  0  0  0  0  0  0  0  0  0
   28.0040   -1.5130    0.4980 C   0  0  0  0  0  0  0  0  0  0  0  0
   27.5820   -0.0260    2.3880 C   0  0  0  0  0  0  0  0  0  0  0  0
   28.7850   -2.1640    2.7020 C   0  0  0  0  0  0  0  0  0  0  0  0
   26.6060    0.2540    3.5270 C   0  0  2  0  0  0  0  0  0  0  0  0
   28.1100   -1.1550    4.9180 C   0  0  0  0  0  0  0  0  0  0  0  0
   25.6710   -1.1320    5.3540 C   0  0  0  0  0  0  0  0  0  0  0  0
   24.4440   -2.6880   -4.1110 C   0  0  0  0  0  0  0  0  0  0  0  0
   19.8630   -3.9210   -4.3420 C   0  0  0  0  0  0  0  0  0  0  0  0
   18.7160   -1.7410   -4.0400 C   0  0  0  0  0  0  0  0  0  0  0  0
   25.1640   -2.2100   -1.9770 C   0  0  0  0  0  0  0  0  0  0  0  0
   26.8180   -1.1990   -0.3870 C   0  0  0  0  0  0  0  0  0  0  0  0
   26.7810    1.6550    4.0800 C   0  0  0  0  0  0  0  0  0  0  0  0
   28.4900   -2.4120    4.1620 C   0  0  0  0  0  0  0  0  0  0  0  0
   23.5780   -1.9800    6.7860 C   0  0  0  0  0  0  0  0  0  0  0  0
   24.8590   -2.4170    7.0330 C   0  0  0  0  0  0  0  0  0  0  0  0
   23.4290   -1.0740    5.7550 C   0  0  0  0  0  0  0  0  0  0  0  0
   22.1030   -0.5170    5.4360 C   0  0  0  0  0  0  0  0  0  0  0  0
   20.1020   -0.0640    5.6220 C   0  0  0  0  0  0  0  0  0  0  0  0
   18.5270   -0.5050    7.4310 C   0  0  0  0  0  0  0  0  0  0  0  0
   18.7850   -2.8440    4.8060 C   0  0  0  0  0  0  0  0  0  0  0  0
   16.8710   -2.1090    3.4560 C   0  0  0  0  0  0  0  0  0  0  0  0
   17.8370   -1.8470    4.4210 C   0  0  0  0  0  0  0  0  0  0  0  0
   18.6730    0.0850    6.0210 C   0  0  1  0  0  0  0  0  0  0  0  0
   18.4080    1.6040    6.0660 C   0  0  0  0  0  0  0  0  0  0  0  0
   16.9270    1.9350    6.0690 C   0  0  0  0  0  0  0  0  0  0  0  0
   16.3160    1.5620    4.7500 C   0  0  0  0  0  0  0  0  0  0  0  0
   16.7270    0.1690    4.3920 C   0  0  0  0  0  0  0  0  0  0  0  0
   17.7490   -0.5350    4.9540 C   0  0  0  0  0  0  0  0  0  0  0  0
   20.6740    1.8450   -6.1410 C   0  0  2  0  0  0  0  0  0  0  0  0
   19.6590    2.4480   -5.1860 C   0  0  0  0  0  0  0  0  0  0  0  0
   20.1960    2.1100   -7.5730 C   0  0  0  0  0  0  0  0  0  0  0  0
   20.6350    0.8730   -8.3370 C   0  0  2  0  0  0  0  0  0  0  0  0
   20.4160   -0.2520   -7.3380 C   0  0  0  0  0  0  0  0  0  0  0  0
   19.7530    5.0550   -2.8510 C   0  0  0  0  0  0  0  0  0  0  0  0
   18.9560    4.4530   -3.9930 C   0  0  1  0  0  0  0  0  0  0  0  0
   16.2230    6.8380   -5.1380 C   0  0  0  0  0  0  0  0  0  0  0  0
   16.9550    5.9550   -4.3640 C   0  0  0  0  0  0  0  0  0  0  0  0
   18.1910    5.4900   -4.7860 C   0  0  2  0  0  0  0  0  0  0  0  0
   18.6800    5.9380   -6.0030 C   0  0  0  0  0  0  0  0  0  0  0  0
   17.9550    6.8210   -6.7810 C   0  0  0  0  0  0  0  0  0  0  0  0
   16.7160    7.2860   -6.3590 C   0  0  0  0  0  0  0  0  0  0  0  0
   14.8340    9.3420   -9.0190 C   0  0  0  0  0  0  0  0  0  0  0  0
   15.9480    8.2320   -7.1920 C   0  0  0  0  0  0  0  0  0  0  0  0
   15.3890    9.4480   -6.8920 C   0  0  0  0  0  0  0  0  0  0  0  0
   15.4170   10.1500   -5.5760 C   0  0  0  0  0  0  0  0  0  0  0  0
   27.6890   -1.4480    1.9640 N   0  0  0  0  0  0  0  0  0  0  0  0
   24.3410   -3.0470   -5.4130 N   0  0  0  0  0  0  0  0  0  0  0  0
   26.7640   -0.6830    4.6010 N   0  0  0  0  0  0  0  0  0  0  0  0
   24.4600   -0.6340    5.0200 N   0  0  0  0  0  0  0  0  0  0  0  0
   25.9250   -2.0130    6.3340 N   0  0  0  0  0  0  0  0  0  0  0  0
   21.8940    0.2930    4.4330 N   0  0  0  0  0  0  0  0  0  0  0  0
   20.9950   -0.7720    6.2130 N   0  0  0  0  0  0  0  0  0  0  0  0
   19.5800   -3.6070    5.1090 N   0  0  0  0  0  0  0  0  0  0  0  0
   22.4440   -2.2610   -4.8010 N   0  0  0  0  0  0  0  0  0  0  0  0
   16.6710   -3.2350    2.7590 N   0  0  0  0  0  0  0  0  0  0  0  0
   19.8750    3.7150   -4.8480 N   0  0  0  0  0  0  0  0  0  0  0  0
   14.7550   10.0680   -7.9490 N   0  0  0  0  0  0  0  0  0  0  0  0
   20.7220    0.3850   -6.0570 N   0  0  0  0  0  0  0  0  0  0  0  0
   25.5000   -2.7410   -3.2830 O   0  0  0  0  0  0  0  0  0  0  0  0
   20.5280    0.6100    4.5520 O   0  0  0  0  0  0  0  0  0  0  0  0
   18.7080    1.8000   -4.7760 O   0  0  0  0  0  0  0  0  0  0  0  0
   22.0140    1.0000   -8.6520 O   0  0  0  0  0  0  0  0  0  0  0  0
   21.1340    5.1270   -3.1600 O   0  0  0  0  0  0  0  0  0  0  0  0
   21.3220    0.2870   -3.9040 O   0  0  0  0  0  0  0  0  0  0  0  0
   15.8600   -0.7340    3.2120 S   0  0  0  0  0  0  0  0  0  0  0  0
   15.6730    7.8550   -8.8550 S   0  0  0  0  0  0  0  0  0  0  0  0
  3  4  1  1
  5  3  1  0
 10  8  1  0
 13  2  1  0
  5 14  1  6
 15  5  1  0
 16  6  1  0
 17  6  1  0
 17  7  1  0
 10 18  1  1
 19 11  1  0
 19  9  1  0
 21 20  1  0
 22 20  1  0
 23 22  1  0
 28 27  1  0
 28 26  1  0
 29 25  1  1
 29 24  1  0
 30 29  1  0
 31 30  1  0
 32 31  1  0
 33 32  1  0
 34 33  1  0
 34 28  1  0
 34 29  1  0
 35 36  1  1
 37 35  1  0
 38 37  1  0
 39 38  1  0
 41 40  1  1
 43 42  1  0
 44 41  1  0
 44 43  1  6
 45 44  1  0
 46 45  1  0
 47 42  1  0
 47 46  1  0
 49 47  1  0
 50 49  1  0
 51 50  1  0
 52  9  1  0
 52  8  1  0
 52  7  1  0
 53  1  1  0
 53 13  1  0
 54 12  1  0
 54 10  1  0
 54 11  1  0
 55 12  1  0
 55 22  1  0
 56 12  1  0
 56 21  1  0
 57 23  1  0
 58 24  1  0
 58 23  1  0
 59 26  1  0
 60  3  1  0
 60  1  1  0
 60  2  1  0
 61 27  1  0
 62 41  1  0
 62 36  1  0
 63 50  1  0
 63 48  1  0
 64 39  1  0
 64 35  1  0
 64  4  1  0
 65 16  1  0
 65 13  1  0
 66 24  1  0
 66 57  1  0
 67 36  1  0
 38 68  1  1
 69 40  1  0
 70  4  1  0
 71 33  1  0
 71 27  1  0
 72 49  1  0
 72 48  1  0
M  END
$$$$

     RDKit          3D

 25 26  0  0  0  0  0  0  0  0999 V2000
   14.8910   -0.2050    7.9800 Cl  0  0  0  0  0  0  0  0  0  0  0  0
   18.2670    3.2910    5.9740 Cl  0  0  0  0  0  0  0  0  0  0  0  0
   16.4790    0.3320    7.8080 C   0  0  0  0  0  0  0  0  0  0  0  0
   16.7030    1.4850    7.0040 C   0  0  0  0  0  0  0  0  0  0  0  0
   17.9640    1.9230    6.8860 C   0  0  0  0  0  0  0  0  0  0  0  0
   19.0400    1.2820    7.5010 C   0  0  0  0  0  0  0  0  0  0  0  0
   20.2860    1.8560    7.2900 O   0  0  0  0  0  0  0  0  0  0  0  0
   21.3830    1.2970    7.9520 C   0  0  0  0  0  0  0  0  0  0  0  0
   21.8770    0.0550    7.2490 C   0  0  0  0  0  0  0  0  0  0  0  0
   22.9980   -0.6480    7.8450 N   0  0  0  0  0  0  0  0  0  0  0  0
   23.5570   -1.8050    7.1790 C   0  0  0  0  0  0  0  0  0  0  0  0
   23.8080   -2.8790    8.1630 C   0  0  0  0  0  0  0  0  0  0  0  0
   24.7100   -2.4170    9.2260 C   0  0  2  0  0  0  0  0  0  0  0  0
   25.0140   -3.5580   10.0430 N   0  0  0  0  0  0  0  0  0  0  0  0
   26.3330   -3.9320   10.5210 C   0  0  1  0  0  0  0  0  0  0  0  0
   26.5390   -5.2690   11.3260 C   0  0  0  0  0  0  0  0  0  0  0  0
   26.6890   -5.3210   12.8060 C   0  0  0  0  0  0  0  0  0  0  0  0
   25.9500   -4.3170   13.6860 C   0  0  0  0  0  0  0  0  0  0  0  0
   26.5600   -3.7150   15.1790 S   0  0  0  0  0  0  0  0  0  0  0  0
   27.3030   -3.3050   10.2160 O   0  0  0  0  0  0  0  0  0  0  0  0
   24.0410   -1.3070   10.0170 C   0  0  0  0  0  0  0  0  0  0  0  0
   23.6570   -0.2220    9.0480 C   0  0  0  0  0  0  0  0  0  0  0  0
   21.3710   -0.3330    6.2390 O   0  0  0  0  0  0  0  0  0  0  0  0
   18.8460    0.1250    8.3050 C   0  0  0  0  0  0  0  0  0  0  0  0
   17.5150   -0.3160    8.4270 C   0  0  0  0  0  0  0  0  0  0  0  0
  3  1  1  0
  4  3  1  0
  5  4  1  0
  5  2  1  0
  6  5  1  0
  7  6  1  0
  8  7  1  0
  9  8  1  0
 10  9  1  0
 11 10  1  0
 12 11  1  0
 13 12  1  0
 13 14  1  1
 15 14  1  0
 16 15  1  0
 17 16  1  0
 18 17  1  0
 19 18  1  0
 15 20  1  6
 21 13  1  0
 22 21  1  0
 22 10  1  0
 23  9  1  0
 24  6  1  0
 25 24  1  0
 25  3  1  0
M  END
$$$$

     RDKit          3D

 34 38  0  0  0  0  0  0  0  0999 V2000
   25.0650   -4.3040   13.0160 C   0  0  0  0  0  0  0  0  0  0  0  0
   24.3030   -3.0770   12.5750 C   0  0  0  0  0  0  0  0  0  0  0  0
   23.3730   -1.5470   10.9110 C   0  0  0  0  0  0  0  0  0  0  0  0
   20.1020   -2.0380    7.7090 C   0  0  1  0  0  0  0  0  0  0  0  0
   21.3410   -1.9350    7.0940 C   0  0  0  0  0  0  0  0  0  0  0  0
   21.4040   -1.2030    5.8890 C   0  0  0  0  0  0  0  0  0  0  0  0
   20.2450   -0.5330    5.4520 C   0  0  0  0  0  0  0  0  0  0  0  0
   19.0510   -0.5920    6.1060 C   0  0  0  0  0  0  0  0  0  0  0  0
   18.9950   -1.3650    7.2620 C   0  0  0  0  0  0  0  0  0  0  0  0
   17.8340    0.1250    5.5930 C   0  0  1  0  0  0  0  0  0  0  0  0
   17.0500   -0.4000    4.5650 C   0  0  2  0  0  0  0  0  0  0  0  0
   15.9290    0.3000    4.1100 C   0  0  0  0  0  0  0  0  0  0  0  0
   15.5490    1.4630    4.7230 C   0  0  0  0  0  0  0  0  0  0  0  0
   23.5280   -1.9180    5.5490 C   0  0  0  0  0  0  0  0  0  0  0  0
   22.5510   -2.5070    7.5020 C   0  0  1  0  0  0  0  0  0  0  0  0
   23.8070   -3.8640    9.1650 C   0  0  0  0  0  0  0  0  0  0  0  0
   24.8560   -3.3770   10.1380 C   0  0  1  0  0  0  0  0  0  0  0  0
   20.3370    0.2160    4.3370 F   0  0  0  0  0  0  0  0  0  0  0  0
   17.3960    1.3160    6.1590 C   0  0  0  0  0  0  0  0  0  0  0  0
   18.1010    1.8170    7.1780 F   0  0  0  0  0  0  0  0  0  0  0  0
   16.2600    1.9770    5.7640 C   0  0  0  0  0  0  0  0  0  0  0  0
   17.3720   -1.6430    4.1420 O   0  0  0  0  0  0  0  0  0  0  0  0
   17.4790   -1.4590    8.1040 Cl  0  0  0  0  0  0  0  0  0  0  0  0
   19.8470   -3.0460    8.6230 O   0  0  0  0  0  0  0  0  0  0  0  0
   19.8810   -2.6490    9.9460 C   0  0  0  0  0  0  0  0  0  0  0  0
   21.2470   -2.9720   10.6560 C   0  0  0  0  0  0  0  0  0  0  0  0
   22.5260   -1.1730    5.1240 N   0  0  0  0  0  0  0  0  0  0  0  0
   23.6330   -2.5970    6.7080 N   0  0  0  0  0  0  0  0  0  0  0  0
   22.8710   -2.7860    8.8250 N   0  0  0  0  0  0  0  0  0  0  0  0
   22.2850   -2.0850    9.9920 C   0  0  2  0  0  0  0  0  0  0  0  0
   25.8300   -2.4610    9.4820 C   0  0  0  0  0  0  0  0  0  0  0  0
   24.1880   -2.7170   11.2750 N   0  0  0  0  0  0  0  0  0  0  0  0
   23.8030   -2.3430   13.4600 O   0  0  0  0  0  0  0  0  0  0  0  0
   26.1410   -3.9720   14.0080 C   0  0  0  0  0  0  0  0  0  0  0  0
  2  1  1  0
  5  4  1  0
  6  5  1  0
  7  6  1  0
  8  7  1  0
  9  8  1  0
  9  4  1  0
 10  8  1  1
 11 10  1  0
 12 11  1  0
 13 12  1  0
 15  5  1  0
 17 16  1  0
 18  7  1  0
 19 10  1  0
 20 19  1  0
 21 13  1  0
 21 19  1  0
 11 22  1  1
 23  9  1  0
  4 24  1  6
 25 24  1  0
 26 25  1  0
 27  6  1  0
 27 14  1  0
 15 28  1  1
 28 14  1  0
 29 16  1  0
 29 15  1  0
 30 26  1  1
 30 29  1  0
 30  3  1  0
 17 31  1  6
 32 17  1  0
 32  3  1  0
 32  2  1  0
 33  2  1  0
 34  1  1  0
M  END
$$$$

     RDKit          3D

 38 43  0  0  0  0  0  0  0  0999 V2000
   17.7700   -1.7540    5.0420 C   0  0  0  0  0  0  0  0  0  0  0  0
   23.8350   -1.9750    7.3880 N   0  0  0  0  0  0  0  0  0  0  0  0
   22.4300   -2.3660   11.5020 C   0  0  0  0  0  0  0  0  0  0  0  0
   21.7690   -2.6220   10.1560 C   0  0  0  0  0  0  0  0  0  0  0  0
   24.1610   -3.3820    9.5180 C   0  0  0  0  0  0  0  0  0  0  0  0
   23.9180   -4.2220   10.7740 C   0  0  0  0  0  0  0  0  0  0  0  0
   22.6030   -1.1240    5.5360 N   0  0  0  0  0  0  0  0  0  0  0  0
   20.1010   -1.2950    5.2790 C   0  0  0  0  0  0  0  0  0  0  0  0
   19.0870   -3.0830    6.7700 C   0  0  0  0  0  0  0  0  0  0  0  0
   15.9490   -0.3290    4.1260 C   0  0  0  0  0  0  0  0  0  0  0  0
   20.0540   -2.6680    7.8980 C   0  0  0  0  0  0  0  0  0  0  0  0
   22.6730   -2.3740    7.9240 C   0  0  0  0  0  0  0  0  0  0  0  0
   21.4000   -2.1880    7.3100 C   0  0  0  0  0  0  0  0  0  0  0  0
   23.7600   -1.3450    6.1910 C   0  0  0  0  0  0  0  0  0  0  0  0
   17.2880   -2.8570    4.3060 C   0  0  0  0  0  0  0  0  0  0  0  0
   16.1450   -2.6820    3.5000 C   0  0  0  0  0  0  0  0  0  0  0  0
   15.4760   -1.4360    3.3810 C   0  0  0  0  0  0  0  0  0  0  0  0
   21.4130   -1.5220    6.0710 C   0  0  1  0  0  0  0  0  0  0  0  0
   18.9140   -1.9500    5.8310 N   0  0  0  0  0  0  0  0  0  0  0  0
   24.8730   -0.9140    5.5810 O   0  0  0  0  0  0  0  0  0  0  0  0
   22.8020   -2.9610    9.1470 N   0  0  0  0  0  0  0  0  0  0  0  0
   23.3400   -3.4710   11.9040 N   0  0  0  0  0  0  0  0  0  0  0  0
   17.0960   -0.4920    4.9520 C   0  0  0  0  0  0  0  0  0  0  0  0
   15.2500    0.8990    4.0170 C   0  0  0  0  0  0  0  0  0  0  0  0
   15.7260    1.9880    4.7790 C   0  0  0  0  0  0  0  0  0  0  0  0
   16.8640    1.8620    5.6100 C   0  0  0  0  0  0  0  0  0  0  0  0
   17.5540    0.6260    5.6900 C   0  0  0  0  0  0  0  0  0  0  0  0
   26.1780   -1.0660    6.1140 C   0  0  0  0  0  0  0  0  0  0  0  0
   23.6740   -3.6240   13.2420 C   0  0  1  0  0  0  0  0  0  0  0  0
   24.6310   -4.6090   13.7020 C   0  0  0  0  0  0  0  0  0  0  0  0
   23.1820   -2.7640   13.9850 O   0  0  0  0  0  0  0  0  0  0  0  0
   25.9610   -4.1680   13.9570 C   0  0  0  0  0  0  0  0  0  0  0  0
   27.1410   -0.3740    5.1560 C   0  0  1  0  0  0  0  0  0  0  0  0
   27.2030   -1.1330    3.8830 N   0  0  0  0  0  0  0  0  0  0  0  0
   26.9600   -0.2060    2.7050 C   0  0  0  0  0  0  0  0  0  0  0  0
   26.9220    1.2460    3.2750 C   0  0  0  0  0  0  0  0  0  0  0  0
   26.6820    1.0820    4.8100 C   0  0  0  0  0  0  0  0  0  0  0  0
   28.6080   -1.6650    3.8940 C   0  0  0  0  0  0  0  0  0  0  0  0
  4  3  1  0
  6  5  1  0
 11  9  1  0
 12  2  1  0
 13 11  1  0
 13 12  1  0
 14  7  1  0
 14  2  1  0
 15  1  1  0
 16 15  1  0
 17 16  1  0
 17 10  1  0
 18  8  1  6
 18 13  1  0
 18  7  1  0
 19  8  1  0
 19  1  1  0
 19  9  1  0
 20 14  1  0
 21  4  1  0
 21 12  1  0
 21  5  1  0
 22  6  1  0
 22  3  1  0
 23 10  1  0
 23  1  1  0
 24 10  1  0
 25 24  1  0
 26 25  1  0
 27 23  1  0
 27 26  1  0
 28 20  1  0
 29 22  1  0
 30 29  1  0
 29 31  1  6
 32 30  1  0
 33 28  1  1
 34 33  1  0
 35 34  1  0
 36 35  1  0
 37 36  1  0
 37 33  1  0
 38 34  1  0
M  END
$$$$

     RDKit          3D

 35 40  0  0  0  0  0  0  0  0999 V2000
   18.4480    1.7210    5.5890 C   0  0  0  0  0  0  0  0  0  0  0  0
   17.9260    0.5140    4.8100 C   0  0  0  0  0  0  0  0  0  0  0  0
   16.7180    0.6080    4.1160 C   0  0  0  0  0  0  0  0  0  0  0  0
   16.2190   -0.4770    3.3970 C   0  0  0  0  0  0  0  0  0  0  0  0
   16.9410   -1.6690    3.3830 C   0  0  0  0  0  0  0  0  0  0  0  0
   16.7390   -2.8510    2.8020 N   0  0  0  0  0  0  0  0  0  0  0  0
   17.6690   -3.6240    3.0740 N   0  0  0  0  0  0  0  0  0  0  0  0
   18.5640   -3.0050    3.8550 C   0  0  0  0  0  0  0  0  0  0  0  0
   18.1390   -1.7640    4.0740 C   0  0  0  0  0  0  0  0  0  0  0  0
   18.6530   -0.6770    4.8020 C   0  0  0  0  0  0  0  0  0  0  0  0
   19.8800   -0.8300    5.4720 C   0  0  0  0  0  0  0  0  0  0  0  0
   19.9700   -1.3620    6.7670 C   0  0  0  0  0  0  0  0  0  0  0  0
   18.7360   -1.7120    7.4020 C   0  0  0  0  0  0  0  0  0  0  0  0
   17.7490   -1.9840    7.9010 N   0  0  0  0  0  0  0  0  0  0  0  0
   21.0110   -0.4870    4.8250 N   0  0  0  0  0  0  0  0  0  0  0  0
   22.2170   -0.6310    5.4030 C   0  0  0  0  0  0  0  0  0  0  0  0
   23.3410   -0.2600    4.7820 N   0  0  0  0  0  0  0  0  0  0  0  0
   24.6610   -0.2720    5.4300 C   0  0  0  0  0  0  0  0  0  0  0  0
   25.5710    0.6130    4.5770 C   0  0  0  0  0  0  0  0  0  0  0  0
   24.6880    1.1530    3.4430 C   0  0  0  0  0  0  0  0  0  0  0  0
   23.4100    0.3100    3.4280 C   0  0  0  0  0  0  0  0  0  0  0  0
   22.3150   -1.1310    6.6490 N   0  0  0  0  0  0  0  0  0  0  0  0
   21.2420   -1.5100    7.3610 C   0  0  0  0  0  0  0  0  0  0  0  0
   21.4870   -2.0210    8.5870 N   0  0  0  0  0  0  0  0  0  0  0  0
   22.8340   -2.0580    9.2090 C   0  0  0  0  0  0  0  0  0  0  0  0
   20.5040   -2.7410    9.4160 C   0  0  0  0  0  0  0  0  0  0  0  0
   21.3430   -3.7230   10.2480 C   0  0  0  0  0  0  0  0  0  0  0  0
   22.6190   -2.8950   10.4860 C   0  0  2  0  0  0  0  0  0  0  0  0
   22.5870   -2.0290   11.7430 C   0  0  0  0  0  0  0  0  0  0  0  0
   23.8000   -3.6690   11.0820 C   0  0  0  0  0  0  0  0  0  0  0  0
   23.4600   -3.0370   12.3800 N   0  0  0  0  0  0  0  0  0  0  0  0
   23.7670   -3.2660   13.6510 C   0  0  0  0  0  0  0  0  0  0  0  0
   23.3540   -2.5430   14.5570 O   0  0  0  0  0  0  0  0  0  0  0  0
   24.6950   -4.4340   14.0050 C   0  0  0  0  0  0  0  0  0  0  0  0
   26.1070   -4.1490   14.5150 C   0  0  0  0  0  0  0  0  0  0  0  0
  2  1  1  0
  3  2  1  0
  4  3  1  0
  5  4  1  0
  6  5  1  0
  7  6  1  0
  8  7  1  0
  9  8  1  0
  9  5  1  0
 10  9  1  0
 10  2  1  0
 11 10  1  0
 12 11  1  0
 13 12  1  0
 14 13  1  0
 15 11  1  0
 16 15  1  0
 17 16  1  0
 18 17  1  0
 19 18  1  0
 20 19  1  0
 21 20  1  0
 21 17  1  0
 22 16  1  0
 23 12  1  0
 23 22  1  0
 24 23  1  0
 25 24  1  0
 26 24  1  0
 27 26  1  0
 28 27  1  6
 28 25  1  0
 29 28  1  0
 30 28  1  0
 31 30  1  0
 31 29  1  0
 32 31  1  0
 33 32  1  0
 34 32  1  0
 35 34  1  0
M  END
$$$$

     RDKit          3D

 48 55  0  0  0  0  0  0  0  0999 V2000
   18.0010   -1.7020    4.7930 C   0  0  1  0  0  0  0  0  0  0  0  0
   19.3940    0.4910    7.6410 C   0  0  0  0  0  0  0  0  0  0  0  0
   21.7510   -2.5190    6.5440 C   0  0  0  0  0  0  0  0  0  0  0  0
   24.9380   -1.8330    9.8510 C   0  0  0  0  0  0  0  0  0  0  0  0
   24.7870   -4.0740    8.7070 C   0  0  0  0  0  0  0  0  0  0  0  0
   25.0630   -3.4030   10.0170 C   0  0  2  0  0  0  0  0  0  0  0  0
   25.5730   -5.3300   12.2200 C   0  0  0  0  0  0  0  0  0  0  0  0
   18.5310    0.5050    6.8280 C   0  0  0  0  0  0  0  0  0  0  0  0
   17.4350    0.5080    5.7900 C   0  0  0  0  0  0  0  0  0  0  0  0
   16.6120    1.6100    5.7810 C   0  0  0  0  0  0  0  0  0  0  0  0
   15.5660    1.7270    4.8940 C   0  0  0  0  0  0  0  0  0  0  0  0
   15.3430    0.7160    4.0010 C   0  0  0  0  0  0  0  0  0  0  0  0
   16.1580   -0.3940    3.9960 C   0  0  0  0  0  0  0  0  0  0  0  0
   15.8520   -1.3610    3.0570 C   0  0  0  0  0  0  0  0  0  0  0  0
   16.6030   -2.4920    2.9910 C   0  0  0  0  0  0  0  0  0  0  0  0
   17.6740   -2.6470    3.8330 C   0  0  0  0  0  0  0  0  0  0  0  0
   19.2780   -2.0440    5.5430 C   0  0  2  0  0  0  0  0  0  0  0  0
   20.4000   -1.3350    5.0990 C   0  0  0  0  0  0  0  0  0  0  0  0
   21.6330   -1.5630    5.5910 C   0  0  0  0  0  0  0  0  0  0  0  0
   20.6320   -3.2680    6.9600 C   0  0  0  0  0  0  0  0  0  0  0  0
   22.9890   -2.8030    7.1250 C   0  0  0  0  0  0  0  0  0  0  0  0
   26.7780   -6.9390   13.6700 C   0  0  0  0  0  0  0  0  0  0  0  0
   24.2750   -4.5600   12.0100 C   0  0  0  0  0  0  0  0  0  0  0  0
   25.4620   -6.1900   13.4760 C   0  0  0  0  0  0  0  0  0  0  0  0
   23.0540   -2.9860   10.7290 C   0  0  1  0  0  0  0  0  0  0  0  0
   23.6010   -1.5820   10.3040 C   0  0  0  0  0  0  0  0  0  0  0  0
   22.1940   -3.5930    9.6550 C   0  0  0  0  0  0  0  0  0  0  0  0
   23.8730   -1.2060    5.7380 C   0  0  0  0  0  0  0  0  0  0  0  0
   26.2170   -0.9710    5.6480 C   0  0  0  0  0  0  0  0  0  0  0  0
   27.2560   -0.2180    4.8290 C   0  0  1  0  0  0  0  0  0  0  0  0
   26.7700    0.5150    2.6370 C   0  0  0  0  0  0  0  0  0  0  0  0
   27.3020    1.7320    3.4350 C   0  0  0  0  0  0  0  0  0  0  0  0
   27.0170    1.2910    4.8750 C   0  0  0  0  0  0  0  0  0  0  0  0
   28.4620   -1.1140    2.9920 C   0  0  0  0  0  0  0  0  0  0  0  0
   29.2080   -1.5240    4.3120 C   0  0  0  0  0  0  0  0  0  0  0  0
   28.6420   -0.5470    5.3570 C   0  0  0  0  0  0  0  0  0  0  0  0
   17.2450   -0.5300    4.8920 C   0  0  0  0  0  0  0  0  0  0  0  0
   20.2760   -0.3350    4.1650 F   0  0  0  0  0  0  0  0  0  0  0  0
   19.3800   -3.0300    6.4270 N   0  0  0  0  0  0  0  0  0  0  0  0
   23.1240   -3.8350    8.1470 N   0  0  0  0  0  0  0  0  0  0  0  0
   24.1430   -3.6600   10.8890 N   0  0  0  0  0  0  0  0  0  0  0  0
   24.0740   -2.1330    6.6960 N   0  0  0  0  0  0  0  0  0  0  0  0
   27.1480   -0.6430    3.4590 N   0  0  0  0  0  0  0  0  0  0  0  0
   22.7080   -0.8710    5.1850 N   0  0  0  0  0  0  0  0  0  0  0  0
   26.9930   -7.5690   14.7390 O   0  0  0  0  0  0  0  0  0  0  0  0
   27.6450   -6.9240   12.7550 O   0  0  0  0  0  0  0  0  0  0  0  0
   23.3720   -4.7020   12.7730 O   0  0  0  0  0  0  0  0  0  0  0  0
   24.9730   -0.4790    5.2490 O   0  0  0  0  0  0  0  0  0  0  0  0
  6  5  1  6
  6  4  1  0
  8  2  1  0
  9  8  1  0
 10  9  1  0
 11 10  1  0
 12 11  1  0
 13 12  1  0
 14 13  1  0
 15 14  1  0
 16 15  1  0
  1 16  1  6
 17  1  1  0
 18 17  1  0
 19 18  1  0
 19  3  1  0
 20  3  1  0
 21  3  1  0
 23  7  1  0
 24 22  1  0
 24  7  1  0
 25 26  1  6
 26  4  1  0
 27 25  1  0
 30 29  1  1
 32 31  1  0
 33 32  1  0
 33 30  1  0
 35 34  1  0
 36 35  1  0
 36 30  1  0
 37 13  1  0
 37  1  1  0
 37  9  1  0
 38 18  1  0
 39 20  1  0
 17 39  1  6
 40 27  1  0
 40 21  1  0
 40  5  1  0
 41 25  1  0
 41  6  1  0
 41 23  1  0
 42 28  1  0
 42 21  1  0
 43 31  1  0
 43 34  1  0
 43 30  1  0
 44 19  1  0
 44 28  1  0
 45 22  1  0
 46 22  1  0
 47 23  1  0
 48 29  1  0
 48 28  1  0
M  END
$$$$

     RDKit          3D

 28 31  0  0  0  0  0  0  0  0999 V2000
   18.9170   -2.0150    5.9100 N   0  0  0  0  0  0  0  0  0  0  0  0
   20.0520   -0.6610    8.0430 C   0  0  0  0  0  0  0  0  0  0  0  0
   20.6900   -0.0110    9.1330 C   0  0  0  0  0  0  0  0  0  0  0  0
   22.1730   -1.8900    9.4610 C   0  0  0  0  0  0  0  0  0  0  0  0
   23.0400   -2.2830   11.7700 C   0  0  0  0  0  0  0  0  0  0  0  0
   23.5200   -3.9330   10.1380 C   0  0  0  0  0  0  0  0  0  0  0  0
   25.9320   -3.9210   15.3440 C   0  0  0  0  0  0  0  0  0  0  0  0
   19.8750   -2.5910    6.6340 C   0  0  0  0  0  0  0  0  0  0  0  0
   17.3400   -0.2450    5.3760 C   0  0  2  0  0  0  0  0  0  0  0  0
   16.6700   -1.0940    4.5010 C   0  0  0  0  0  0  0  0  0  0  0  0
   15.3020    0.7230    3.7250 C   0  0  0  0  0  0  0  0  0  0  0  0
   16.9990    1.1150    5.3520 C   0  0  2  0  0  0  0  0  0  0  0  0
   25.1020   -4.4070   14.1650 C   0  0  0  0  0  0  0  0  0  0  0  0
   24.1450   -3.3260   13.6590 C   0  0  0  0  0  0  0  0  0  0  0  0
   23.6370   -2.4830   14.3930 O   0  0  0  0  0  0  0  0  0  0  0  0
   23.8980   -3.3140   12.3360 N   0  0  0  0  0  0  0  0  0  0  0  0
   24.4000   -4.2820   11.3500 C   0  0  0  0  0  0  0  0  0  0  0  0
   23.2910   -2.4230   10.2770 C   0  0  1  0  0  0  0  0  0  0  0  0
   21.5620   -2.5670    8.4120 C   0  0  0  0  0  0  0  0  0  0  0  0
   21.7490   -0.6360    9.7490 N   0  0  0  0  0  0  0  0  0  0  0  0
   20.3850    1.1240    9.5560 O   0  0  0  0  0  0  0  0  0  0  0  0
   19.0150   -0.0840    7.3080 C   0  0  0  0  0  0  0  0  0  0  0  0
   20.4910   -1.9460    7.6900 C   0  0  0  0  0  0  0  0  0  0  0  0
   18.4430   -0.7640    6.2190 C   0  0  0  0  0  0  0  0  0  0  0  0
   17.6120    1.9620    6.1720 F   0  0  0  0  0  0  0  0  0  0  0  0
   15.9770    1.5940    4.5700 C   0  0  0  0  0  0  0  0  0  0  0  0
   15.6570   -0.6180    3.6820 C   0  0  0  0  0  0  0  0  0  0  0  0
   16.9880   -2.3820    4.4610 O   0  0  0  0  0  0  0  0  0  0  0  0
  3  2  1  0
  8  1  1  0
 10  9  1  0
 12  9  1  0
 13  7  1  0
 14 13  1  0
 15 14  1  0
 16 14  1  0
 16  5  1  0
 17  6  1  0
 17 16  1  0
 18  6  1  0
 18  4  1  6
 18  5  1  0
 19  4  1  0
 20  3  1  0
 20  4  1  0
 21  3  1  0
 22  2  1  0
 23 19  1  0
 23  8  1  0
 23  2  1  0
  9 24  1  6
 24 22  1  0
 24  1  1  0
 12 25  1  1
 26 11  1  0
 26 12  1  0
 27 11  1  0
 27 10  1  0
 28 10  1  0
M  END
$$$$

     RDKit          3D

 33 36  0  0  0  0  0  0  0  0999 V2000
   26.3370   -4.8060   13.2790 C   0  0  0  0  0  0  0  0  0  0  0  0
   25.1250   -4.4070   14.1130 C   0  0  0  0  0  0  0  0  0  0  0  0
   24.3800   -3.1890   13.5250 C   0  0  0  0  0  0  0  0  0  0  0  0
   24.0160   -2.3130   14.2230 O   0  0  0  0  0  0  0  0  0  0  0  0
   24.0980   -3.0490   12.1040 N   0  0  0  0  0  0  0  0  0  0  0  0
   23.4130   -1.9960   11.2880 C   0  0  0  0  0  0  0  0  0  0  0  0
   23.8660   -2.6810   10.0370 C   0  0  1  0  0  0  0  0  0  0  0  0
   24.3720   -3.8220   10.8580 C   0  0  0  0  0  0  0  0  0  0  0  0
   22.7670   -3.1310    9.2130 N   0  0  0  0  0  0  0  0  0  0  0  0
   22.2520   -2.5140    8.0120 C   0  0  0  0  0  0  0  0  0  0  0  0
   22.7040   -1.5090    7.5790 O   0  0  0  0  0  0  0  0  0  0  0  0
   21.0810   -3.2550    7.3620 C   0  0  0  0  0  0  0  0  0  0  0  0
   20.6690   -2.7310    6.1250 O   0  0  0  0  0  0  0  0  0  0  0  0
   19.8910   -1.5670    6.1650 C   0  0  0  0  0  0  0  0  0  0  0  0
   19.4780   -1.0510    7.3810 C   0  0  0  0  0  0  0  0  0  0  0  0
   18.7360    0.1100    7.4260 C   0  0  0  0  0  0  0  0  0  0  0  0
   18.4100    0.7420    6.2500 C   0  0  0  0  0  0  0  0  0  0  0  0
   17.3910    2.3820    6.2220 Br  0  0  0  0  0  0  0  0  0  0  0  0
   18.8050    0.2460    5.0490 C   0  0  0  0  0  0  0  0  0  0  0  0
   19.5480   -0.9010    4.9930 C   0  0  0  0  0  0  0  0  0  0  0  0
   19.9710   -1.3330    3.5820 C   0  0  1  0  0  0  0  0  0  0  0  0
   19.2140   -1.9130    2.8860 O   0  0  0  0  0  0  0  0  0  0  0  0
   21.2880   -0.9580    3.0910 N   0  0  0  0  0  0  0  0  0  0  0  0
   21.9780   -1.3190    1.8400 C   0  0  0  0  0  0  0  0  0  0  0  0
   23.0780   -0.3110    1.6720 C   0  0  0  0  0  0  0  0  0  0  0  0
   23.4100    0.1140    2.8900 C   0  0  2  0  0  0  0  0  0  0  0  0
   22.2190   -0.0890    3.8010 C   0  0  0  0  0  0  0  0  0  0  0  0
   24.6700    0.8750    3.3010 C   0  0  0  0  0  0  0  0  0  0  0  0
   24.7610    1.4440    4.5750 C   0  0  0  0  0  0  0  0  0  0  0  0
   25.8960    2.1440    4.9820 C   0  0  0  0  0  0  0  0  0  0  0  0
   26.9530    2.2680    4.0990 C   0  0  0  0  0  0  0  0  0  0  0  0
   26.8660    1.7050    2.8260 C   0  0  0  0  0  0  0  0  0  0  0  0
   25.7360    1.0090    2.4250 C   0  0  0  0  0  0  0  0  0  0  0  0
  2  1  1  0
  3  2  1  0
  4  3  1  0
  5  3  1  0
  6  5  1  0
  7  6  1  0
  8  7  1  0
  8  5  1  0
  7  9  1  6
 10  9  1  0
 11 10  1  0
 12 10  1  0
 13 12  1  0
 14 13  1  0
 15 14  1  0
 16 15  1  0
 17 16  1  0
 18 17  1  0
 19 17  1  0
 20 19  1  0
 20 14  1  0
 21 20  1  0
 21 22  1  6
 23 21  1  0
 24 23  1  0
 25 24  1  0
 26 25  1  0
 27 23  1  0
 27 26  1  0
 26 28  1  6
 29 28  1  0
 30 29  1  0
 31 30  1  0
 32 31  1  0
 33 32  1  0
 33 28  1  0
M  END
$$$$

     RDKit          3D

 30 33  0  0  0  0  0  0  0  0999 V2000
   23.8180   -2.2430   13.6590 O   0  0  0  0  0  0  0  0  0  0  0  0
   24.0710   -3.1260   12.8100 C   0  0  2  0  0  0  0  0  0  0  0  0
   24.7410   -4.3450   13.3440 C   0  0  0  0  0  0  0  0  0  0  0  0
   25.9680   -4.0230   14.1210 C   0  0  0  0  0  0  0  0  0  0  0  0
   23.8170   -2.9170   11.5450 N   0  0  0  0  0  0  0  0  0  0  0  0
   23.2130   -1.6500   10.9820 C   0  0  0  0  0  0  0  0  0  0  0  0
   22.2630   -1.9990    9.8470 C   0  0  0  0  0  0  0  0  0  0  0  0
   24.0480   -3.9680   10.5320 C   0  0  0  0  0  0  0  0  0  0  0  0
   24.2500   -3.3330    9.1670 C   0  0  0  0  0  0  0  0  0  0  0  0
   23.0600   -2.5600    8.8430 N   0  0  0  0  0  0  0  0  0  0  0  0
   22.8580   -2.1430    7.5370 C   0  0  1  0  0  0  0  0  0  0  0  0
   23.9240   -2.2920    6.7260 N   0  0  0  0  0  0  0  0  0  0  0  0
   23.8400   -1.7980    5.4840 C   0  0  0  0  0  0  0  0  0  0  0  0
   22.7200   -1.2390    4.9360 N   0  0  0  0  0  0  0  0  0  0  0  0
   21.5910   -1.1870    5.7130 C   0  0  2  0  0  0  0  0  0  0  0  0
   21.5980   -1.6700    6.9880 C   0  0  0  0  0  0  0  0  0  0  0  0
   20.4110   -1.6160    7.6670 C   0  0  0  0  0  0  0  0  0  0  0  0
   19.2730   -1.1650    7.0930 C   0  0  0  0  0  0  0  0  0  0  0  0
   17.7710   -1.1620    8.0590 Cl  0  0  0  0  0  0  0  0  0  0  0  0
   20.4090   -0.7330    5.1800 C   0  0  0  0  0  0  0  0  0  0  0  0
   20.4720   -0.2940    3.8830 F   0  0  0  0  0  0  0  0  0  0  0  0
   19.2260   -0.6670    5.8010 C   0  0  1  0  0  0  0  0  0  0  0  0
   17.9990   -0.2050    5.0660 C   0  0  0  0  0  0  0  0  0  0  0  0
   17.4580   -1.0440    4.0740 C   0  0  2  0  0  0  0  0  0  0  0  0
   18.0430   -2.1650    3.6780 O   0  0  0  0  0  0  0  0  0  0  0  0
   17.4070    0.9900    5.3600 C   0  0  2  0  0  0  0  0  0  0  0  0
   18.0010    1.7340    6.3440 F   0  0  0  0  0  0  0  0  0  0  0  0
   16.1670    1.3620    4.6680 C   0  0  0  0  0  0  0  0  0  0  0  0
   15.6560    0.5250    3.7090 C   0  0  0  0  0  0  0  0  0  0  0  0
   16.2690   -0.6370    3.4210 C   0  0  0  0  0  0  0  0  0  0  0  0
  2  1  1  6
  3  2  1  0
  4  3  1  0
  5  2  1  0
  6  5  1  0
  7  6  1  0
  8  5  1  0
  9  8  1  0
 10  9  1  0
 10  7  1  0
 11 10  1  6
 12 11  1  0
 13 12  1  0
 14 13  1  0
 15 14  1  6
 16 15  1  0
 16 11  1  0
 17 16  1  0
 18 17  1  0
 19 18  1  0
 20 15  1  0
 21 20  1  0
 22 20  1  0
 22 18  1  0
 22 23  1  6
 24 23  1  0
 24 25  1  6
 26 23  1  0
 26 27  1  1
 28 26  1  0
 29 28  1  0
 30 29  1  0
 30 24  1  0
M  END
$$$$

     RDKit          3D

 30 33  0  0  0  0  0  0  0  0999 V2000
   17.1850    0.9040    6.2090 C   0  0  1  0  0  0  0  0  0  0  0  0
   16.8360   -0.2730    5.2620 C   0  0  2  0  0  0  0  0  0  0  0  0
   15.9130   -0.2010    4.2470 C   0  0  2  0  0  0  0  0  0  0  0  0
   15.6150   -1.2550    3.4050 C   0  0  0  0  0  0  0  0  0  0  0  0
   16.1760   -2.4640    3.6550 C   0  0  2  0  0  0  0  0  0  0  0  0
   17.1550   -2.5920    4.6740 C   0  0  0  0  0  0  0  0  0  0  0  0
   22.0620   -2.1060    8.0370 C   0  0  0  0  0  0  0  0  0  0  0  0
   23.0210   -1.7920   10.2240 C   0  0  1  0  0  0  0  0  0  0  0  0
   24.5060   -4.4200   13.3510 C   0  0  0  0  0  0  0  0  0  0  0  0
   19.4970   -2.7990    9.1500 C   0  0  0  0  0  0  0  0  0  0  0  0
   16.1360    1.5360    7.0920 C   0  0  0  0  0  0  0  0  0  0  0  0
   18.1850   -4.4440    7.4960 O   0  0  0  0  0  0  0  0  0  0  0  0
   19.0110   -3.7500    6.9380 C   0  0  0  0  0  0  0  0  0  0  0  0
   19.1550   -3.7990    5.4260 C   0  0  0  0  0  0  0  0  0  0  0  0
   17.8380   -3.7720    4.8020 N   0  0  0  0  0  0  0  0  0  0  0  0
   15.9770   -3.5490    2.8420 O   0  0  0  0  0  0  0  0  0  0  0  0
   15.0950    1.3500    3.9320 Cl  0  0  0  0  0  0  0  0  0  0  0  0
   17.4110   -1.5100    5.4950 C   0  0  0  0  0  0  0  0  0  0  0  0
   17.2880    0.6720    7.7150 C   0  0  0  0  0  0  0  0  0  0  0  0
   18.1840    1.8500    5.6130 C   0  0  0  0  0  0  0  0  0  0  0  0
   19.7720   -2.9390    7.7020 N   0  0  0  0  0  0  0  0  0  0  0  0
   20.7900   -2.8920    9.9580 C   0  0  0  0  0  0  0  0  0  0  0  0
   21.7650   -1.9710    9.4620 N   0  0  0  0  0  0  0  0  0  0  0  0
   20.8020   -2.0280    7.1580 C   0  0  0  0  0  0  0  0  0  0  0  0
   22.7750   -1.4820   11.6920 C   0  0  0  0  0  0  0  0  0  0  0  0
   23.3710   -2.7320   12.0920 N   0  0  0  0  0  0  0  0  0  0  0  0
   23.6500   -3.1170   10.6780 C   0  0  0  0  0  0  0  0  0  0  0  0
   23.7700   -3.1390   13.2770 C   0  0  0  0  0  0  0  0  0  0  0  0
   23.5220   -2.3970   14.2780 O   0  0  0  0  0  0  0  0  0  0  0  0
   25.9390   -4.1350   13.8270 C   0  0  0  0  0  0  0  0  0  0  0  0
  2  1  1  0
  3  2  1  0
  4  3  1  0
  5  4  1  0
  6  5  1  0
 11  1  1  0
 13 12  1  0
 14 13  1  0
 15 14  1  0
 15  6  1  0
  5 16  1  6
  3 17  1  6
 18  6  1  0
  2 18  1  1
 19 11  1  0
 19  1  1  0
  1 20  1  6
 21 13  1  0
 21 10  1  0
 22 10  1  0
 23 22  1  0
  8 23  1  6
 23  7  1  0
 24 21  1  0
 24  7  1  0
 25  8  1  0
 26 25  1  0
 27  8  1  0
 27 26  1  0
 28 26  1  0
 28  9  1  0
 29 28  1  0
 30  9  1  0
M  END
$$$$

     RDKit          3D

 40 44  0  0  0  0  0  0  0  0999 V2000
   23.6640   -2.3680    9.3150 N   0  0  0  0  0  0  0  0  0  0  0  0
   24.7300   -3.3030    9.7440 C   0  0  0  0  0  0  0  0  0  0  0  0
   23.1920   -1.4490   10.3480 C   0  0  0  0  0  0  0  0  0  0  0  0
   26.1610   -3.9180   14.8140 C   0  0  0  0  0  0  0  0  0  0  0  0
   26.9880   -1.3680    3.5030 C   0  0  0  0  0  0  0  0  0  0  0  0
   26.5320    0.4770    5.7100 C   0  0  0  0  0  0  0  0  0  0  0  0
   18.2330   -1.2700    8.4460 Cl  0  0  0  0  0  0  0  0  0  0  0  0
   19.6640   -1.4670    7.5060 C   0  0  1  0  0  0  0  0  0  0  0  0
   19.6300   -1.2790    6.1090 C   0  0  1  0  0  0  0  0  0  0  0  0
   20.7810   -1.4920    5.3870 C   0  0  0  0  0  0  0  0  0  0  0  0
   22.0190   -1.7840    6.0230 C   0  0  0  0  0  0  0  0  0  0  0  0
   22.0770   -1.9050    7.4300 C   0  0  0  0  0  0  0  0  0  0  0  0
   20.8470   -1.7320    8.1680 C   0  0  0  0  0  0  0  0  0  0  0  0
   23.1110   -1.9330    5.2210 N   0  0  0  0  0  0  0  0  0  0  0  0
   24.2520   -2.2100    5.8110 C   0  0  0  0  0  0  0  0  0  0  0  0
   24.4080   -2.3510    7.1410 N   0  0  0  0  0  0  0  0  0  0  0  0
   23.3690   -2.1930    7.9820 C   0  0  0  0  0  0  0  0  0  0  0  0
   24.2970   -4.0650   10.9790 C   0  0  0  0  0  0  0  0  0  0  0  0
   23.8260   -3.1680   12.0460 N   0  0  0  0  0  0  0  0  0  0  0  0
   22.7740   -2.2100   11.6040 C   0  0  0  0  0  0  0  0  0  0  0  0
   24.2340   -3.2390   13.3190 C   0  0  0  0  0  0  0  0  0  0  0  0
   25.2700   -4.2970   13.6440 C   0  0  0  0  0  0  0  0  0  0  0  0
   23.8080   -2.4690   14.1780 O   0  0  0  0  0  0  0  0  0  0  0  0
   25.3660   -2.3860    5.0680 N   0  0  0  0  0  0  0  0  0  0  0  0
   25.5500   -1.8680    3.7180 C   0  0  0  0  0  0  0  0  0  0  0  0
   27.0700    0.1550    3.3170 C   0  0  0  0  0  0  0  0  0  0  0  0
   26.8570    0.9520    4.3810 N   0  0  0  0  0  0  0  0  0  0  0  0
   26.9650    2.3890    4.2090 C   0  0  0  0  0  0  0  0  0  0  0  0
   27.3510    0.5970    2.2570 O   0  0  0  0  0  0  0  0  0  0  0  0
   18.3760   -1.1100    5.2930 C   0  0  0  0  0  0  0  0  0  0  0  0
   18.0130   -2.1520    4.4460 C   0  0  0  0  0  0  0  0  0  0  0  0
   16.8880   -2.0640    3.6460 C   0  0  0  0  0  0  0  0  0  0  0  0
   16.6190   -3.1710    2.8300 O   0  0  0  0  0  0  0  0  0  0  0  0
   16.0680   -0.9570    3.6520 C   0  0  0  0  0  0  0  0  0  0  0  0
   16.3810    0.1530    4.5020 C   0  0  0  0  0  0  0  0  0  0  0  0
   17.5550    0.0810    5.3350 C   0  0  0  0  0  0  0  0  0  0  0  0
   17.8540    1.1970    6.1720 C   0  0  0  0  0  0  0  0  0  0  0  0
   17.0190    2.3150    6.1780 C   0  0  0  0  0  0  0  0  0  0  0  0
   15.8740    2.3860    5.3750 C   0  0  0  0  0  0  0  0  0  0  0  0
   15.5490    1.3160    4.5420 C   0  0  0  0  0  0  0  0  0  0  0  0
  2  1  1  0
  3  1  1  0
  8  7  1  1
  9  8  1  0
 10  9  1  0
 11 10  1  0
 12 11  1  0
 13  8  1  0
 13 12  1  0
 14 11  1  0
 15 14  1  0
 16 15  1  0
 17 16  1  0
 17 12  1  0
 17  1  1  0
 18  2  1  0
 19 18  1  0
 20  3  1  0
 20 19  1  0
 21 19  1  0
 22 21  1  0
 22  4  1  0
 23 21  1  0
 24 15  1  0
 25 24  1  0
 25  5  1  0
 26  5  1  0
 27 26  1  0
 27  6  1  0
 28 27  1  0
 29 26  1  0
  9 30  1  6
 31 30  1  0
 32 31  1  0
 33 32  1  0
 34 32  1  0
 35 34  1  0
 36 35  1  0
 36 30  1  0
 37 36  1  0
 38 37  1  0
 39 38  1  0
 40 39  1  0
 40 35  1  0
M  END
$$$$

     RDKit          3D

 24 25  0  0  0  0  0  0  0  0999 V2000
   15.1800   -0.7870    8.6540 Cl  0  0  0  0  0  0  0  0  0  0  0  0
   18.5520    2.4100    5.8900 Cl  0  0  0  0  0  0  0  0  0  0  0  0
   16.7260   -0.2050    8.3630 C   0  0  0  0  0  0  0  0  0  0  0  0
   17.8000   -0.6870    9.1320 C   0  0  0  0  0  0  0  0  0  0  0  0
   19.0810   -0.2130    8.9020 C   0  0  0  0  0  0  0  0  0  0  0  0
   19.3200    0.7630    7.8810 C   0  0  0  0  0  0  0  0  0  0  0  0
   20.6410    1.2720    7.6250 O   0  0  0  0  0  0  0  0  0  0  0  0
   21.7280    0.7200    8.2610 C   0  0  0  0  0  0  0  0  0  0  0  0
   22.1640   -0.6160    7.7020 C   0  0  0  0  0  0  0  0  0  0  0  0
   23.1850   -1.4250    8.3420 N   0  0  0  0  0  0  0  0  0  0  0  0
   23.6020   -2.7110    7.8580 C   0  0  0  0  0  0  0  0  0  0  0  0
   23.3670   -3.7570    8.9110 C   0  0  0  0  0  0  0  0  0  0  0  0
   23.9130   -3.3860   10.2610 C   0  0  2  0  0  0  0  0  0  0  0  0
   23.4110   -4.2610   11.3360 N   0  0  0  0  0  0  0  0  0  0  0  0
   24.3850   -5.5750   11.6040 S   0  0  2  0  0  0  0  0  0  0  0  0
   25.7530   -5.2210   12.6310 C   0  0  0  0  0  0  0  0  0  0  0  0
   25.5580   -4.2940   13.8440 C   0  0  0  0  0  0  0  0  0  0  0  0
   24.8080   -6.1920   10.3230 O   0  0  0  0  0  0  0  0  0  0  0  0
   23.5830   -6.6750   12.1920 O   0  0  0  0  0  0  0  0  0  0  0  0
   23.5680   -1.9980   10.6480 C   0  0  0  0  0  0  0  0  0  0  0  0
   23.8850   -1.0460    9.5570 C   0  0  0  0  0  0  0  0  0  0  0  0
   21.5860   -1.0280    6.6270 O   0  0  0  0  0  0  0  0  0  0  0  0
   18.2560    1.2380    7.1130 C   0  0  0  0  0  0  0  0  0  0  0  0
   16.9550    0.7620    7.3460 C   0  0  0  0  0  0  0  0  0  0  0  0
  3  1  1  0
  4  3  1  0
  5  4  1  0
  6  5  1  0
  7  6  1  0
  8  7  1  0
  9  8  1  0
 10  9  1  0
 11 10  1  0
 12 11  1  0
 13 12  1  0
 13 14  1  1
 15 14  1  0
 16 15  1  0
 17 16  1  0
 15 18  1  6
 19 15  1  0
 20 13  1  0
 21 20  1  0
 21 10  1  0
 22  9  1  0
 23  6  1  0
 23  2  1  0
 24 23  1  0
 24  3  1  0
M  END
$$$$

     RDKit          3D

 36 41  0  0  0  0  0  0  0  0999 V2000
   16.6210   -2.5250    2.9750 C   0  0  0  0  0  0  0  0  0  0  0  0
   15.8420   -1.3730    3.0520 C   0  0  0  0  0  0  0  0  0  0  0  0
   16.0820   -0.4130    4.0060 C   0  0  0  0  0  0  0  0  0  0  0  0
   17.1500   -0.5680    4.9560 C   0  0  2  0  0  0  0  0  0  0  0  0
   17.9110   -1.7790    4.8860 C   0  0  1  0  0  0  0  0  0  0  0  0
   17.6620   -2.7200    3.8880 C   0  0  0  0  0  0  0  0  0  0  0  0
   21.6740   -2.5930    6.8750 C   0  0  0  0  0  0  0  0  0  0  0  0
   21.6020   -1.6420    5.8300 C   0  0  0  0  0  0  0  0  0  0  0  0
   23.8760   -1.1920    5.9760 C   0  0  0  0  0  0  0  0  0  0  0  0
   22.9920   -2.7610    7.4320 C   0  0  0  0  0  0  0  0  0  0  0  0
   27.3740   -0.8140    4.6980 C   0  0  1  0  0  0  0  0  0  0  0  0
   26.4930   -0.6620    2.4790 C   0  0  0  0  0  0  0  0  0  0  0  0
   27.4070    0.6880    4.3610 C   0  0  0  0  0  0  0  0  0  0  0  0
   28.2720   -2.2200    3.0210 C   0  0  0  0  0  0  0  0  0  0  0  0
   17.3000    0.4670    5.9230 C   0  0  0  0  0  0  0  0  0  0  0  0
   20.5030   -3.2780    7.2420 C   0  0  0  0  0  0  0  0  0  0  0  0
   19.1820   -2.1540    5.7320 C   0  0  2  0  0  0  0  0  0  0  0  0
   20.3360   -1.4510    5.2660 C   0  0  1  0  0  0  0  0  0  0  0  0
   26.3110   -1.0790    5.7990 C   0  0  0  0  0  0  0  0  0  0  0  0
   27.1060    0.7340    2.8250 C   0  0  0  0  0  0  0  0  0  0  0  0
   24.7660   -3.7220    8.8610 C   0  0  0  0  0  0  0  0  0  0  0  0
   25.1280   -4.8700    9.8120 C   0  0  0  0  0  0  0  0  0  0  0  0
   23.0670   -3.9670   10.9800 C   0  0  0  0  0  0  0  0  0  0  0  0
   22.3610   -4.1330    9.6120 C   0  0  0  0  0  0  0  0  0  0  0  0
   15.2430    0.7140    3.9880 C   0  0  0  0  0  0  0  0  0  0  0  0
   15.4320    1.7030    4.9330 C   0  0  0  0  0  0  0  0  0  0  0  0
   16.4450    1.5810    5.8740 C   0  0  0  0  0  0  0  0  0  0  0  0
   20.2590   -0.4950    4.2810 F   0  0  0  0  0  0  0  0  0  0  0  0
   22.6820   -0.9540    5.3990 N   0  0  0  0  0  0  0  0  0  0  0  0
   24.0600   -2.0480    6.9500 N   0  0  0  0  0  0  0  0  0  0  0  0
   19.2890   -3.0620    6.6890 N   0  0  0  0  0  0  0  0  0  0  0  0
   27.0600   -1.5540    3.5100 N   0  0  0  0  0  0  0  0  0  0  0  0
   23.3280   -3.7240    8.5360 N   0  0  0  0  0  0  0  0  0  0  0  0
   24.2540   -4.8680   11.0430 N   0  0  0  0  0  0  0  0  0  0  0  0
   25.0260   -0.4720    5.4940 O   0  0  0  0  0  0  0  0  0  0  0  0
   18.5510    0.3460    7.1990 Cl  0  0  0  0  0  0  0  0  0  0  0  0
  2  1  1  0
  3  2  1  0
  4  3  1  0
  5  4  1  0
  5  6  1  6
  6  1  1  0
  8  7  1  0
 10  7  1  0
 13 11  1  0
  4 15  1  1
 16  7  1  0
 17  5  1  0
 18 17  1  0
 18  8  1  0
 11 19  1  1
 20 12  1  0
 20 13  1  0
 22 21  1  0
 24 23  1  0
 25  3  1  0
 26 25  1  0
 27 26  1  0
 27 15  1  0
 18 28  1  1
 29  8  1  0
 29  9  1  0
 30 10  1  0
 30  9  1  0
 17 31  1  6
 31 16  1  0
 32 12  1  0
 32 14  1  0
 32 11  1  0
 33 24  1  0
 33 21  1  0
 33 10  1  0
 34 22  1  0
 34 23  1  0
 35 19  1  0
 35  9  1  0
 36 15  1  0
M  END
$$$$

     RDKit          3D

 36 39  0  0  0  0  0  0  0  0999 V2000
   20.9010   -1.7390    8.1420 C   0  0  0  0  0  0  0  0  0  0  0  0
   22.7960   -2.2800   11.4190 C   0  0  0  0  0  0  0  0  0  0  0  0
   24.3040   -3.2510   13.1320 C   0  0  0  0  0  0  0  0  0  0  0  0
   24.1750   -4.2410   10.8210 C   0  0  0  0  0  0  0  0  0  0  0  0
   24.5680   -3.5580    9.5060 C   0  0  0  0  0  0  0  0  0  0  0  0
   24.2460   -1.8700    5.7240 C   0  0  0  0  0  0  0  0  0  0  0  0
   25.5440   -1.1930    3.7060 C   0  0  0  0  0  0  0  0  0  0  0  0
   27.0770    0.6330    2.8150 C   0  0  0  0  0  0  0  0  0  0  0  0
   18.4650    1.5380    6.9790 F   0  0  0  0  0  0  0  0  0  0  0  0
   17.8040    0.7970    6.0320 C   0  0  0  0  0  0  0  0  0  0  0  0
   16.6290    1.3030    5.5040 C   0  0  0  0  0  0  0  0  0  0  0  0
   15.9720    0.5480    4.5560 C   0  0  0  0  0  0  0  0  0  0  0  0
   16.4950   -0.6750    4.1690 C   0  0  0  0  0  0  0  0  0  0  0  0
   17.6710   -1.1660    4.7130 C   0  0  0  0  0  0  0  0  0  0  0  0
   18.3460   -0.4320    5.6710 C   0  0  0  0  0  0  0  0  0  0  0  0
   19.6050   -0.9460    6.2640 C   0  0  2  0  0  0  0  0  0  0  0  0
   19.7010   -1.3080    7.6050 C   0  0  0  0  0  0  0  0  0  0  0  0
   22.0820   -1.7870    7.3490 C   0  0  0  0  0  0  0  0  0  0  0  0
   23.3660   -2.2340    7.8000 C   0  0  2  0  0  0  0  0  0  0  0  0
   23.5870   -2.5410    9.1210 N   0  0  0  0  0  0  0  0  0  0  0  0
   23.2680   -1.5670   10.1770 C   0  0  0  0  0  0  0  0  0  0  0  0
   23.8150   -3.2470   11.8690 N   0  0  0  0  0  0  0  0  0  0  0  0
   25.3370   -4.2920   13.5070 C   0  0  0  0  0  0  0  0  0  0  0  0
   26.7640   -3.8640   13.1230 C   0  0  0  0  0  0  0  0  0  0  0  0
   23.9410   -2.4220   13.9770 O   0  0  0  0  0  0  0  0  0  0  0  0
   24.4530   -2.2570    7.0050 N   0  0  0  0  0  0  0  0  0  0  0  0
   25.3500   -1.9240    4.9450 N   0  0  0  0  0  0  0  0  0  0  0  0
   26.9900   -0.7120    3.5480 C   0  0  0  0  0  0  0  0  0  0  0  0
   27.2750    0.6200    1.4840 N   0  0  0  0  0  0  0  0  0  0  0  0
   27.3680    1.8780    0.7600 C   0  0  0  0  0  0  0  0  0  0  0  0
   27.3890   -0.6370    0.7560 C   0  0  0  0  0  0  0  0  0  0  0  0
   26.9870    1.7010    3.4250 O   0  0  0  0  0  0  0  0  0  0  0  0
   23.0850   -1.4520    5.1680 N   0  0  0  0  0  0  0  0  0  0  0  0
   22.0000   -1.4160    5.9880 C   0  0  0  0  0  0  0  0  0  0  0  0
   20.7440   -0.9840    5.4790 C   0  0  0  0  0  0  0  0  0  0  0  0
   18.3040   -1.2720    8.6550 Cl  0  0  0  0  0  0  0  0  0  0  0  0
  5  4  1  0
 10  9  1  0
 11 10  1  0
 12 11  1  0
 13 12  1  0
 14 13  1  0
 15 14  1  0
 15 10  1  0
 16 15  1  1
 17 16  1  0
 17  1  1  0
 18  1  1  0
 19 18  1  0
 19 20  1  1
 20  5  1  0
 21 20  1  0
 21  2  1  0
 22  4  1  0
 22  3  1  0
 22  2  1  0
 23  3  1  0
 24 23  1  0
 25  3  1  0
 26 19  1  0
 26  6  1  0
 27  7  1  0
 27  6  1  0
 28  8  1  0
 28  7  1  0
 29  8  1  0
 30 29  1  0
 31 29  1  0
 32  8  1  0
 33  6  1  0
 34 33  1  0
 34 18  1  0
 35 16  1  0
 35 34  1  0
 36 17  1  0
M  END
$$$$

     RDKit          3D

 47 53  0  0  0  0  0  0  0  0999 V2000
   17.8390   -1.3830    4.6670 C   0  0  2  0  0  0  0  0  0  0  0  0
   21.5210   -1.4350    5.4880 C   0  0  0  0  0  0  0  0  0  0  0  0
   21.5880   -2.3810    6.4410 C   0  0  0  0  0  0  0  0  0  0  0  0
   20.3650   -3.0440    6.8450 C   0  0  0  0  0  0  0  0  0  0  0  0
   19.1030   -1.7890    5.4220 C   0  0  2  0  0  0  0  0  0  0  0  0
   20.2390   -1.1290    4.9420 C   0  0  1  0  0  0  0  0  0  0  0  0
   17.2280    0.7260    5.8360 C   0  0  0  0  0  0  0  0  0  0  0  0
   16.3640    1.8400    5.9340 C   0  0  0  0  0  0  0  0  0  0  0  0
   15.3200    2.0160    5.0320 C   0  0  0  0  0  0  0  0  0  0  0  0
   15.1250    1.0860    4.0340 C   0  0  0  0  0  0  0  0  0  0  0  0
   16.0140   -0.0480    3.9260 C   0  0  0  0  0  0  0  0  0  0  0  0
   15.7780   -0.9860    2.8910 C   0  0  0  0  0  0  0  0  0  0  0  0
   16.5730   -2.0840    2.7430 C   0  0  0  0  0  0  0  0  0  0  0  0
   17.6160   -2.2720    3.6160 C   0  0  0  0  0  0  0  0  0  0  0  0
   22.8910   -2.6610    6.9540 C   0  0  2  0  0  0  0  0  0  0  0  0
   24.3760   -4.3960    8.1730 C   0  0  0  0  0  0  0  0  0  0  0  0
   24.9690   -4.0800    9.5410 C   0  0  0  0  0  0  0  0  0  0  0  0
   24.1350   -5.0170   11.8070 C   0  0  0  0  0  0  0  0  0  0  0  0
   25.2940   -6.0230   12.0930 C   0  0  2  0  0  0  0  0  0  0  0  0
   26.6240   -5.3230   12.2580 C   0  0  0  0  0  0  0  0  0  0  0  0
   27.7300   -5.1290   11.1540 C   0  0  0  0  0  0  0  0  0  0  0  0
   22.8440   -3.2700   10.4890 C   0  0  1  0  0  0  0  0  0  0  0  0
   23.0860   -1.7420   10.4400 C   0  0  0  0  0  0  0  0  0  0  0  0
   21.8000   -0.8470   10.4820 C   0  0  0  0  0  0  0  0  0  0  0  0
   22.1670   -3.7470    9.2000 C   0  0  0  0  0  0  0  0  0  0  0  0
   23.8550   -1.1060    5.5650 C   0  0  0  0  0  0  0  0  0  0  0  0
   26.1950   -1.1290    5.2250 C   0  0  0  0  0  0  0  0  0  0  0  0
   27.1770   -0.5130    4.1560 C   0  0  1  0  0  0  0  0  0  0  0  0
   26.3580    0.0450    2.0640 C   0  0  0  0  0  0  0  0  0  0  0  0
   27.1980    1.1510    2.6660 C   0  0  0  0  0  0  0  0  0  0  0  0
   27.0930    0.8050    4.1560 C   0  0  0  0  0  0  0  0  0  0  0  0
   27.8060   -2.2610    2.5090 C   0  0  0  0  0  0  0  0  0  0  0  0
   28.7910   -2.3330    3.9070 C   0  0  0  0  0  0  0  0  0  0  0  0
   28.7090   -0.9750    4.4240 C   0  0  0  0  0  0  0  0  0  0  0  0
   17.0410   -0.2260    4.8090 C   0  0  0  0  0  0  0  0  0  0  0  0
   20.1890   -0.1560    4.0100 F   0  0  0  0  0  0  0  0  0  0  0  0
   19.1910   -2.7360    6.3200 N   0  0  0  0  0  0  0  0  0  0  0  0
   23.1030   -3.5980    8.0250 N   0  0  0  0  0  0  0  0  0  0  0  0
   24.0200   -4.0890   10.6010 N   0  0  0  0  0  0  0  0  0  0  0  0
   20.8350   -0.1430   10.4970 N   0  0  0  0  0  0  0  0  0  0  0  0
   23.9770   -2.0210    6.5280 N   0  0  0  0  0  0  0  0  0  0  0  0
   26.8400   -1.0330    2.7100 N   0  0  0  0  0  0  0  0  0  0  0  0
   22.6560   -0.7850    5.0560 N   0  0  0  0  0  0  0  0  0  0  0  0
   25.3660   -7.0830   11.1790 O   0  0  0  0  0  0  0  0  0  0  0  0
   23.2540   -4.9220   12.6210 O   0  0  0  0  0  0  0  0  0  0  0  0
   24.9810   -0.4150    5.0580 O   0  0  0  0  0  0  0  0  0  0  0  0
   18.5290    0.5410    7.0540 Cl  0  0  0  0  0  0  0  0  0  0  0  0
  3  2  1  0
  4  3  1  0
  5  1  1  0
  6  5  1  0
  6  2  1  0
  8  7  1  0
  9  8  1  0
 10  9  1  0
 11 10  1  0
 12 11  1  0
 13 12  1  0
 14 13  1  0
  1 14  1  6
 15  3  1  0
 17 16  1  0
 19 18  1  0
 20 19  1  0
 21 20  1  0
 22 23  1  6
 24 23  1  0
 25 22  1  0
 28 27  1  1
 30 29  1  0
 31 30  1  0
 31 28  1  0
 33 32  1  0
 34 28  1  0
 34 33  1  0
 35 11  1  0
 35  1  1  0
 35  7  1  0
  6 36  1  1
  5 37  1  6
 37  4  1  0
 38 25  1  0
 38 16  1  0
 15 38  1  1
 39 22  1  0
 39 17  1  0
 39 18  1  0
 40 24  1  0
 41 26  1  0
 41 15  1  0
 42 29  1  0
 42 28  1  0
 42 32  1  0
 43  2  1  0
 43 26  1  0
 19 44  1  6
 45 18  1  0
 46 27  1  0
 46 26  1  0
 47  7  1  0
M  END
$$$$

     RDKit          3D

 43 49  0  0  0  0  0  0  0  0999 V2000
   16.0310    1.5930    3.4770 C   0  0  0  0  0  0  0  0  0  0  0  0
   15.1810    0.6600    2.9120 C   0  0  0  0  0  0  0  0  0  0  0  0
   20.0630   -1.3330    6.8150 C   0  0  0  0  0  0  0  0  0  0  0  0
   16.8080   -2.4360    3.4890 C   0  0  0  0  0  0  0  0  0  0  0  0
   21.2130   -1.5320    6.0780 C   0  0  1  0  0  0  0  0  0  0  0  0
   16.7820   -1.0270    3.6280 C   0  0  0  0  0  0  0  0  0  0  0  0
   17.6230   -0.0810    4.2030 C   0  0  0  0  0  0  0  0  0  0  0  0
   18.8530   -0.5410    4.8830 C   0  0  0  0  0  0  0  0  0  0  0  0
   17.2110    1.2370    4.1100 C   0  0  0  0  0  0  0  0  0  0  0  0
   21.2010   -1.1390    4.7600 C   0  0  0  0  0  0  0  0  0  0  0  0
   15.5950   -0.6480    3.0070 C   0  0  0  0  0  0  0  0  0  0  0  0
   20.0340   -0.6700    4.1930 C   0  0  0  0  0  0  0  0  0  0  0  0
   18.9070   -0.8790    6.2180 C   0  0  0  0  0  0  0  0  0  0  0  0
   22.4120   -1.9340    6.6480 C   0  0  0  0  0  0  0  0  0  0  0  0
   23.3810   -1.5540    4.6640 C   0  0  0  0  0  0  0  0  0  0  0  0
   25.8220   -4.1680   14.6810 C   0  0  0  0  0  0  0  0  0  0  0  0
   24.4750   -4.5760   14.1170 C   0  0  0  0  0  0  0  0  0  0  0  0
   23.6130   -3.3330   13.9420 C   0  0  0  0  0  0  0  0  0  0  0  0
   26.8950   -1.5860    3.1190 C   0  0  0  0  0  0  0  0  0  0  0  0
   26.2500   -0.6230    5.3720 C   0  0  0  0  0  0  0  0  0  0  0  0
   21.3040   -2.7500   10.0580 C   0  0  0  0  0  0  0  0  0  0  0  0
   23.6720   -1.8620    9.9200 C   0  0  0  0  0  0  0  0  0  0  0  0
   27.6820   -0.3190    2.8210 C   0  0  0  0  0  0  0  0  0  0  0  0
   26.9470    0.6920    5.0830 C   0  0  0  0  0  0  0  0  0  0  0  0
   21.5050   -2.9560    8.6170 C   0  0  0  0  0  0  0  0  0  0  0  0
   23.9670   -2.7160    8.5990 C   0  0  0  0  0  0  0  0  0  0  0  0
   23.1660   -3.8890   11.4310 C   0  0  0  0  0  0  0  0  0  0  0  0
   22.3800   -1.9970   12.1370 C   0  0  0  0  0  0  0  0  0  0  0  0
   25.8060   -1.2060    4.0230 C   0  0  2  0  0  0  0  0  0  0  0  0
   22.6310   -2.6100   10.7590 C   0  0  2  0  0  0  0  0  0  0  0  0
   18.0750    2.2990    4.7100 C   0  0  0  0  0  0  0  0  0  0  0  0
   28.3430    1.9410    3.3530 C   0  0  0  0  0  0  0  0  0  0  0  0
   15.7360   -2.8950    2.8390 N   0  0  0  0  0  0  0  0  0  0  0  0
   22.2810   -1.2380    3.9960 N   0  0  0  0  0  0  0  0  0  0  0  0
   23.5070   -1.8750    5.9500 N   0  0  0  0  0  0  0  0  0  0  0  0
   15.0190   -1.8020    2.5600 N   0  0  0  0  0  0  0  0  0  0  0  0
   22.6700   -2.3930    7.9340 N   0  0  0  0  0  0  0  0  0  0  0  0
   23.0570   -3.1640   12.6860 N   0  0  0  0  0  0  0  0  0  0  0  0
   27.3400    0.8830    3.6360 N   0  0  0  0  0  0  0  0  0  0  0  0
   24.4140   -1.5530    3.8140 N   0  0  0  0  0  0  0  0  0  0  0  0
   23.3960   -2.5780   14.8770 O   0  0  0  0  0  0  0  0  0  0  0  0
   20.0600   -0.3140    2.9120 F   0  0  0  0  0  0  0  0  0  0  0  0
   17.5520   -0.7460    7.2320 Cl  0  0  0  0  0  0  0  0  0  0  0  0
  2  1  1  0
  5  3  1  1
  6  4  1  0
  7  6  1  0
  8  7  1  0
  9  1  1  0
  9  7  1  0
 10  5  1  0
 11  2  1  0
 11  6  1  0
 12 10  1  0
 12  8  1  0
 13  8  1  0
 13  3  1  0
 14  5  1  0
 17 16  1  0
 18 17  1  0
 23 19  1  0
 24 20  1  0
 25 21  1  0
 26 22  1  0
 29 20  1  0
 29 19  1  0
 30 21  1  6
 30 22  1  0
 30 28  1  0
 30 27  1  0
 31  9  1  0
 33  4  1  0
 34 10  1  0
 34 15  1  0
 35 15  1  0
 35 14  1  0
 36 33  1  0
 36 11  1  0
 37 25  1  0
 37 26  1  0
 37 14  1  0
 38 28  1  0
 38 27  1  0
 38 18  1  0
 39 24  1  0
 39 32  1  0
 39 23  1  0
 29 40  1  1
 40 15  1  0
 41 18  1  0
 42 12  1  0
 43 13  1  0
M  END
$$$$

     RDKit          3D

 69 76  0  0  0  0  0  0  0  0999 V2000
   27.1410   -0.9220    2.0080 N   0  0  0  0  0  0  0  0  0  0  0  0
   18.1200    1.4420    5.9660 C   0  0  0  0  0  0  0  0  0  0  0  0
   18.4340   -0.0300    5.7800 C   0  0  1  0  0  0  0  0  0  0  0  0
   16.4010    0.0770    4.3180 C   0  0  2  0  0  0  0  0  0  0  0  0
   17.4880   -0.5670    4.7670 C   0  0  0  0  0  0  0  0  0  0  0  0
   17.6310   -1.7890    4.1750 C   0  0  0  0  0  0  0  0  0  0  0  0
   16.4340   -3.2360    2.6630 N   0  0  0  0  0  0  0  0  0  0  0  0
   19.8550    0.0390    5.5450 C   0  0  1  0  0  0  0  0  0  0  0  0
   23.1840   -0.8970    5.7930 C   0  0  2  0  0  0  0  0  0  0  0  0
   25.3930   -0.9000    5.3360 C   0  0  0  0  0  0  0  0  0  0  0  0
   24.7110   -1.9200    7.2200 C   0  0  0  0  0  0  0  0  0  0  0  0
   28.5420   -1.5880    4.0570 C   0  0  0  0  0  0  0  0  0  0  0  0
   18.6530   -2.6430    4.4800 C   0  0  0  0  0  0  0  0  0  0  0  0
   18.2850   -0.8260    7.0650 C   0  0  0  0  0  0  0  0  0  0  0  0
   21.8750   -0.2750    5.5250 C   0  0  1  0  0  0  0  0  0  0  0  0
   15.8720    1.3500    4.8630 C   0  0  0  0  0  0  0  0  0  0  0  0
   23.4090   -1.6300    6.9380 C   0  0  0  0  0  0  0  0  0  0  0  0
   27.7300   -0.6940    4.9650 C   0  0  0  0  0  0  0  0  0  0  0  0
   26.1460    0.4400    3.5360 C   0  0  2  0  0  0  0  0  0  0  0  0
   16.6430    1.7360    6.0810 C   0  0  0  0  0  0  0  0  0  0  0  0
   28.1390   -1.8570    2.6240 C   0  0  0  0  0  0  0  0  0  0  0  0
   27.2270    0.3330    2.4900 C   0  0  0  0  0  0  0  0  0  0  0  0
   26.3370    1.7470    4.2490 C   0  0  0  0  0  0  0  0  0  0  0  0
   27.2120   -1.0190    0.5110 C   0  0  0  0  0  0  0  0  0  0  0  0
   25.9120   -0.7780   -0.2210 C   0  0  0  0  0  0  0  0  0  0  0  0
   25.9770   -1.0880   -1.6610 C   0  0  0  0  0  0  0  0  0  0  0  0
   24.7120   -1.5230   -2.2760 C   0  0  0  0  0  0  0  0  0  0  0  0
   24.7530   -1.5490   -3.7720 C   0  0  0  0  0  0  0  0  0  0  0  0
   23.4510   -1.5310   -4.5220 C   0  0  0  0  0  0  0  0  0  0  0  0
   21.1720   -0.6350   -4.5900 C   0  0  2  0  0  0  0  0  0  0  0  0
   20.9430    0.8790   -4.5590 C   0  0  1  0  0  0  0  0  0  0  0  0
   19.9600   -1.4220   -4.0380 C   0  0  1  0  0  0  0  0  0  0  0  0
   20.2490   -2.9080   -4.0010 C   0  0  0  0  0  0  0  0  0  0  0  0
   19.6420   -0.9470   -2.6340 C   0  0  0  0  0  0  0  0  0  0  0  0
   18.7580   -1.2170   -4.9290 C   0  0  0  0  0  0  0  0  0  0  0  0
   20.4530    2.9290   -5.6370 C   0  0  1  0  0  0  0  0  0  0  0  0
   19.9210    3.2650   -7.0020 C   0  0  0  0  0  0  0  0  0  0  0  0
   20.2340    2.0950   -7.8990 C   0  0  2  0  0  0  0  0  0  0  0  0
   20.2790    0.9110   -6.9610 C   0  0  0  0  0  0  0  0  0  0  0  0
   19.4030    3.5470   -4.7390 C   0  0  0  0  0  0  0  0  0  0  0  0
   18.9230    5.6230   -3.5960 C   0  0  0  0  0  0  0  0  0  0  0  0
   17.8140    6.1460   -4.4460 C   0  0  2  0  0  0  0  0  0  0  0  0
   17.9310    6.1840   -5.8020 C   0  0  0  0  0  0  0  0  0  0  0  0
   17.0990    6.9500   -6.5650 C   0  0  0  0  0  0  0  0  0  0  0  0
   16.1370    7.7110   -5.9930 C   0  0  0  0  0  0  0  0  0  0  0  0
   15.9510    7.6110   -4.6270 C   0  0  0  0  0  0  0  0  0  0  0  0
   16.7970    6.8450   -3.8650 C   0  0  0  0  0  0  0  0  0  0  0  0
   15.3740    8.6340   -6.8200 C   0  0  0  0  0  0  0  0  0  0  0  0
   14.2820    9.6500   -8.5830 C   0  0  0  0  0  0  0  0  0  0  0  0
   14.8130    9.8120   -6.5460 C   0  0  0  0  0  0  0  0  0  0  0  0
   14.7810   10.4800   -5.2070 C   0  0  0  0  0  0  0  0  0  0  0  0
   16.6620   -2.0850    3.2560 C   0  0  1  0  0  0  0  0  0  0  0  0
   19.4890   -3.2340    4.8070 N   0  0  0  0  0  0  0  0  0  0  0  0
   21.6830    0.4740    4.4770 N   0  0  0  0  0  0  0  0  0  0  0  0
   20.7770   -0.5290    6.2310 N   0  0  0  0  0  0  0  0  0  0  0  0
   24.1660   -0.5750    4.9500 N   0  0  0  0  0  0  0  0  0  0  0  0
   25.7300   -1.5450    6.4560 N   0  0  0  0  0  0  0  0  0  0  0  0
   26.3660   -0.5190    4.5030 N   0  0  0  0  0  0  0  0  0  0  0  0
   22.4280   -0.9160   -3.9280 N   0  0  0  0  0  0  0  0  0  0  0  0
   20.5990    1.4920   -5.6790 N   0  0  0  0  0  0  0  0  0  0  0  0
   19.7990    4.5920   -4.0960 N   0  0  0  0  0  0  0  0  0  0  0  0
   14.1920   10.3700   -7.6130 N   0  0  0  0  0  0  0  0  0  0  0  0
   20.3100    0.6850    4.4790 O   0  0  0  0  0  0  0  0  0  0  0  0
   23.3720   -2.0400   -5.6210 O   0  0  0  0  0  0  0  0  0  0  0  0
   20.9460    1.4600   -3.5090 O   0  0  0  0  0  0  0  0  0  0  0  0
   21.4410    2.4050   -8.5020 O   0  0  0  0  0  0  0  0  0  0  0  0
   18.2820    3.1000   -4.7000 O   0  0  0  0  0  0  0  0  0  0  0  0
   15.5810   -0.7920    3.1090 S   0  0  0  0  0  0  0  0  0  0  0  0
   15.1130    8.2480   -8.3460 S   0  0  0  0  0  0  0  0  0  0  0  0
  3  2  1  0
  5  4  1  0
  5  3  1  0
  6  5  1  0
  8  3  1  0
 13  6  1  0
  3 14  1  1
 15  9  1  0
  4 16  1  1
 17 11  1  0
  9 17  1  1
 18 12  1  0
 20 16  1  0
 20  2  1  0
 21  1  1  0
 21 12  1  0
 22 19  1  0
 22  1  1  0
 19 23  1  1
 24  1  1  0
 25 24  1  0
 26 25  1  0
 27 26  1  0
 28 27  1  0
 29 28  1  0
 31 30  1  0
 32 30  1  0
 32 33  1  1
 34 32  1  0
 35 32  1  0
 37 36  1  0
 38 37  1  0
 39 38  1  0
 36 40  1  1
 42 41  1  1
 43 42  1  0
 44 43  1  0
 45 44  1  0
 46 45  1  0
 47 46  1  0
 47 42  1  0
 48 45  1  0
 50 48  1  0
 51 50  1  0
 52  7  1  1
 52  6  1  0
 53 13  1  0
 15 54  1  6
  8 55  1  6
 55 15  1  0
 56 10  1  0
 56  9  1  0
 57 10  1  0
 57 11  1  0
 58 19  1  0
 58 10  1  0
 58 18  1  0
 30 59  1  1
 59 29  1  0
 60 39  1  0
 60 36  1  0
 60 31  1  0
 61 40  1  0
 61 41  1  0
 62 50  1  0
 62 49  1  0
 63 54  1  0
 63  8  1  0
 64 29  1  0
 31 65  1  1
 38 66  1  1
 67 40  1  0
 68 52  1  0
 68  4  1  0
 69 49  1  0
 69 48  1  0
M  END
$$$$

     RDKit          3D

 31 34  0  0  0  0  0  0  0  0999 V2000
   24.7700   -4.5430   13.7340 C   0  0  0  0  0  0  0  0  0  0  0  0
   23.7370   -3.4340   13.3220 C   0  0  0  0  0  0  0  0  0  0  0  0
   24.1600   -3.7520   10.8600 C   0  0  0  0  0  0  0  0  0  0  0  0
   21.9030   -1.1410    6.1480 C   0  0  0  0  0  0  0  0  0  0  0  0
   20.7530   -0.9460    5.3910 C   0  0  2  0  0  0  0  0  0  0  0  0
   19.5600   -0.5310    6.0220 C   0  0  2  0  0  0  0  0  0  0  0  0
   19.6110   -0.2490    7.3860 C   0  0  0  0  0  0  0  0  0  0  0  0
   20.7680   -0.3850    8.1310 C   0  0  1  0  0  0  0  0  0  0  0  0
   21.0060   -1.0480   10.3210 C   0  0  0  0  0  0  0  0  0  0  0  0
   22.4130   -1.4760   10.6670 C   0  0  1  0  0  0  0  0  0  0  0  0
   22.1520   -2.5080   11.7560 C   0  0  0  0  0  0  0  0  0  0  0  0
   18.2820   -0.4830    5.2400 C   0  0  0  0  0  0  0  0  0  0  0  0
   17.6330   -1.6510    4.8540 C   0  0  0  0  0  0  0  0  0  0  0  0
   16.5160    0.8250    4.2050 C   0  0  0  0  0  0  0  0  0  0  0  0
   17.7120    0.7410    4.8950 C   0  0  1  0  0  0  0  0  0  0  0  0
   20.7840   -1.2330    3.9770 C   0  0  0  0  0  0  0  0  0  0  0  0
   20.8480   -1.4470    2.8110 C   0  0  0  0  0  0  0  0  0  0  0  0
   18.4060    2.2130    5.4990 Cl  0  0  0  0  0  0  0  0  0  0  0  0
   15.9010   -0.3480    3.7730 C   0  0  0  0  0  0  0  0  0  0  0  0
   16.4370   -1.5900    4.1050 C   0  0  0  0  0  0  0  0  0  0  0  0
   18.1250   -2.8660    5.2340 O   0  0  0  0  0  0  0  0  0  0  0  0
   20.9090   -1.7110    1.3840 C   0  0  0  0  0  0  0  0  0  0  0  0
   18.4890    0.2120    7.9910 F   0  0  0  0  0  0  0  0  0  0  0  0
   21.9350   -0.8700    7.5160 C   0  0  1  0  0  0  0  0  0  0  0  0
   23.1700   -1.1910    8.3450 C   0  0  0  0  0  0  0  0  0  0  0  0
   20.7950    0.0790    9.4710 O   0  0  0  0  0  0  0  0  0  0  0  0
   22.9730   -2.1290    9.4620 N   0  0  0  0  0  0  0  0  0  0  0  0
   24.3090   -2.6600    9.8560 C   0  0  0  0  0  0  0  0  0  0  0  0
   23.3790   -3.2840   12.0340 N   0  0  0  0  0  0  0  0  0  0  0  0
   23.2830   -2.6800   14.2440 O   0  0  0  0  0  0  0  0  0  0  0  0
   26.0050   -3.9340   14.2850 C   0  0  0  0  0  0  0  0  0  0  0  0
  2  1  1  0
  5  4  1  0
  6  5  1  0
  7  6  1  0
  8  7  1  0
 10  9  1  6
 11 10  1  0
  6 12  1  1
 13 12  1  0
 15 14  1  0
 15 12  1  0
  5 16  1  1
 17 16  1  0
 15 18  1  1
 19 14  1  0
 20 19  1  0
 20 13  1  0
 21 13  1  0
 22 17  1  0
 23  7  1  0
 24  8  1  0
 24  4  1  1
 25 24  1  0
 26  9  1  0
  8 26  1  6
 27 25  1  0
 27 10  1  0
 28 27  1  0
 28  3  1  0
 29  3  1  0
 29 11  1  0
 29  2  1  0
 30  2  1  0
 31  1  1  0
M  END
$$$$

     RDKit          3D

 35 39  0  0  0  0  0  0  0  0999 V2000
   25.8820   -4.1530   14.4670 C   0  0  0  0  0  0  0  0  0  0  0  0
   24.5050   -4.5840   14.0090 C   0  0  0  0  0  0  0  0  0  0  0  0
   23.6430   -3.4190   13.5310 C   0  0  0  0  0  0  0  0  0  0  0  0
   23.3520   -2.5290   14.2680 O   0  0  0  0  0  0  0  0  0  0  0  0
   23.1740   -3.4040   12.1630 N   0  0  0  0  0  0  0  0  0  0  0  0
   22.3630   -2.3530   11.7000 C   0  0  0  0  0  0  0  0  0  0  0  0
   22.9500   -1.7990   10.4270 C   0  0  0  0  0  0  0  0  0  0  0  0
   22.9240   -2.8700    9.3800 N   0  0  0  0  0  0  0  0  0  0  0  0
   23.9040   -3.8890    9.8430 C   0  0  0  0  0  0  0  0  0  0  0  0
   23.4610   -4.4170   11.2040 C   0  0  0  0  0  0  0  0  0  0  0  0
   22.9510   -2.3210    8.0580 C   0  0  2  0  0  0  0  0  0  0  0  0
   24.0980   -2.2420    7.4010 N   0  0  0  0  0  0  0  0  0  0  0  0
   24.1590   -1.6780    6.1570 N   0  0  0  0  0  0  0  0  0  0  0  0
   23.0680   -1.1830    5.5910 C   0  0  0  0  0  0  0  0  0  0  0  0
   23.2060   -0.6220    4.3400 C   0  0  0  0  0  0  0  0  0  0  0  0
   23.3720   -1.4320    3.2230 C   0  0  0  0  0  0  0  0  0  0  0  0
   23.5170   -0.8460    1.9690 C   0  0  0  0  0  0  0  0  0  0  0  0
   23.5050    0.5390    1.8420 C   0  0  0  0  0  0  0  0  0  0  0  0
   23.3410    1.3430    2.9620 C   0  0  0  0  0  0  0  0  0  0  0  0
   23.1980    0.7640    4.2160 C   0  0  0  0  0  0  0  0  0  0  0  0
   21.8000   -1.2210    6.2570 C   0  0  0  0  0  0  0  0  0  0  0  0
   20.6020   -0.6980    5.6790 C   0  0  0  0  0  0  0  0  0  0  0  0
   19.3850   -0.7610    6.3600 C   0  0  0  0  0  0  0  0  0  0  0  0
   19.3460   -1.3400    7.6340 C   0  0  0  0  0  0  0  0  0  0  0  0
   17.8060   -1.4290    8.5250 Cl  0  0  0  0  0  0  0  0  0  0  0  0
   20.5090   -1.8530    8.2060 C   0  0  0  0  0  0  0  0  0  0  0  0
   21.7520   -1.7870    7.4990 C   0  0  0  0  0  0  0  0  0  0  0  0
   18.2470   -0.2290    5.7610 C   0  0  0  0  0  0  0  0  0  0  0  0
   17.6400   -0.8600    4.6780 C   0  0  0  0  0  0  0  0  0  0  0  0
   18.1620   -2.0640    4.1900 O   0  0  0  0  0  0  0  0  0  0  0  0
   16.5120   -0.3000    4.0830 C   0  0  0  0  0  0  0  0  0  0  0  0
   15.9900    0.8960    4.5590 C   0  0  0  0  0  0  0  0  0  0  0  0
   16.5920    1.5320    5.6370 C   0  0  0  0  0  0  0  0  0  0  0  0
   17.7180    0.9740    6.2310 C   0  0  0  0  0  0  0  0  0  0  0  0
   18.3010    1.6050    7.2890 F   0  0  0  0  0  0  0  0  0  0  0  0
  2  1  1  0
  3  2  1  0
  4  3  1  0
  5  3  1  0
  6  5  1  0
  7  6  1  0
  8  7  1  0
  9  8  1  0
 10  9  1  0
 10  5  1  0
 11  8  1  1
 12 11  1  0
 13 12  1  0
 14 13  1  0
 15 14  1  0
 16 15  1  0
 17 16  1  0
 18 17  1  0
 19 18  1  0
 20 19  1  0
 20 15  1  0
 21 14  1  0
 22 21  1  0
 23 22  1  0
 24 23  1  0
 25 24  1  0
 26 24  1  0
 27 26  1  0
 27 21  1  0
 27 11  1  0
 28 23  1  0
 29 28  1  0
 30 29  1  0
 31 29  1  0
 32 31  1  0
 33 32  1  0
 34 33  1  0
 34 28  1  0
 35 34  1  0
M  END
$$$$

     RDKit          3D

 36 39  0  0  0  0  0  0  0  0999 V2000
   20.8330   -1.4890    7.9370 C   0  0  0  0  0  0  0  0  0  0  0  0
   22.9080   -2.1590   11.1850 C   0  0  0  0  0  0  0  0  0  0  0  0
   24.3420   -3.2680   12.8750 C   0  0  0  0  0  0  0  0  0  0  0  0
   24.2890   -4.1160   10.5010 C   0  0  0  0  0  0  0  0  0  0  0  0
   24.6320   -3.3780    9.1910 C   0  0  0  0  0  0  0  0  0  0  0  0
   23.9980   -1.9910    5.3660 C   0  0  0  0  0  0  0  0  0  0  0  0
   26.1820   -1.2790    4.4720 C   0  0  0  0  0  0  0  0  0  0  0  0
   27.0590    0.7280    3.1880 C   0  0  0  0  0  0  0  0  0  0  0  0
   18.3450    1.7660    6.7330 F   0  0  0  0  0  0  0  0  0  0  0  0
   17.6710    1.0000    5.8240 C   0  0  0  0  0  0  0  0  0  0  0  0
   16.4870    1.5090    5.3140 C   0  0  0  0  0  0  0  0  0  0  0  0
   15.7950    0.7410    4.3960 C   0  0  0  0  0  0  0  0  0  0  0  0
   16.3000   -0.5070    4.0300 C   0  0  0  0  0  0  0  0  0  0  0  0
   17.4900   -0.9990    4.5590 C   0  0  0  0  0  0  0  0  0  0  0  0
   18.2010   -0.2500    5.4830 C   0  0  0  0  0  0  0  0  0  0  0  0
   19.4760   -0.7760    6.0480 C   0  0  2  0  0  0  0  0  0  0  0  0
   19.6380   -1.0380    7.4030 C   0  0  0  0  0  0  0  0  0  0  0  0
   21.9750   -1.6830    7.0950 C   0  0  0  0  0  0  0  0  0  0  0  0
   23.2690   -2.1450    7.5260 C   0  0  2  0  0  0  0  0  0  0  0  0
   23.5940   -2.4090    8.8490 N   0  0  0  0  0  0  0  0  0  0  0  0
   23.3130   -1.4470    9.9020 C   0  0  0  0  0  0  0  0  0  0  0  0
   23.9190   -3.1670   11.5910 N   0  0  0  0  0  0  0  0  0  0  0  0
   25.3140   -4.3820   13.2530 C   0  0  0  0  0  0  0  0  0  0  0  0
   26.5660   -3.8700   13.9760 C   0  0  0  0  0  0  0  0  0  0  0  0
   23.9600   -2.4810   13.7490 O   0  0  0  0  0  0  0  0  0  0  0  0
   24.2810   -2.2900    6.6520 N   0  0  0  0  0  0  0  0  0  0  0  0
   25.0270   -2.1650    4.5250 N   0  0  0  0  0  0  0  0  0  0  0  0
   25.8370    0.0310    3.7680 C   0  0  0  0  0  0  0  0  0  0  0  0
   27.3150    0.5600    1.8750 N   0  0  0  0  0  0  0  0  0  0  0  0
   28.4610    1.2130    1.2580 C   0  0  0  0  0  0  0  0  0  0  0  0
   26.4630   -0.2910    1.0540 C   0  0  0  0  0  0  0  0  0  0  0  0
   27.7620    1.4550    3.8860 O   0  0  0  0  0  0  0  0  0  0  0  0
   22.8440   -1.5580    4.8390 N   0  0  0  0  0  0  0  0  0  0  0  0
   21.8230   -1.4020    5.7170 C   0  0  0  0  0  0  0  0  0  0  0  0
   20.5690   -0.9510    5.2280 C   0  0  0  0  0  0  0  0  0  0  0  0
   18.2840   -0.8140    8.4550 Cl  0  0  0  0  0  0  0  0  0  0  0  0
  5  4  1  0
 10  9  1  0
 11 10  1  0
 12 11  1  0
 13 12  1  0
 14 13  1  0
 15 14  1  0
 15 10  1  0
 16 15  1  1
 17 16  1  0
 17  1  1  0
 18  1  1  0
 19 18  1  0
 19 20  1  1
 20  5  1  0
 21 20  1  0
 21  2  1  0
 22  4  1  0
 22  3  1  0
 22  2  1  0
 23  3  1  0
 24 23  1  0
 25  3  1  0
 26  6  1  0
 26 19  1  0
 27  7  1  0
 27  6  1  0
 28  8  1  0
 28  7  1  0
 29  8  1  0
 30 29  1  0
 31 29  1  0
 32  8  1  0
 33  6  1  0
 34 33  1  0
 34 18  1  0
 35 16  1  0
 35 34  1  0
 36 17  1  0
M  END
$$$$

     RDKit          3D

 33 37  0  0  0  0  0  0  0  0999 V2000
   16.0290   -0.2040    2.9250 C   0  0  0  0  0  0  0  0  0  0  0  0
   17.6320    1.6270    5.8580 C   0  0  0  0  0  0  0  0  0  0  0  0
   21.1870   -2.6100    9.3010 C   0  0  0  0  0  0  0  0  0  0  0  0
   23.3950   -2.8760   10.6590 C   0  0  0  0  0  0  0  0  0  0  0  0
   27.6850   -3.1750   11.2300 C   0  0  0  0  0  0  0  0  0  0  0  0
   20.8380    0.2050    4.8890 Cl  0  0  0  0  0  0  0  0  0  0  0  0
   20.1100   -0.8210    6.1430 C   0  0  0  0  0  0  0  0  0  0  0  0
   18.7730   -1.1770    6.1080 C   0  0  0  0  0  0  0  0  0  0  0  0
   17.8030   -0.7620    5.0040 C   0  0  0  0  0  0  0  0  0  0  0  0
   17.4520   -1.7790    4.0890 C   0  0  0  0  0  0  0  0  0  0  0  0
   17.8250   -3.1620    3.9310 C   0  0  0  0  0  0  0  0  0  0  0  0
   17.1830   -3.6490    2.8840 N   0  0  0  0  0  0  0  0  0  0  0  0
   16.4420   -2.6470    2.3500 N   0  0  0  0  0  0  0  0  0  0  0  0
   16.5760   -1.5060    3.0520 C   0  0  0  0  0  0  0  0  0  0  0  0
   16.3730    0.7920    3.8240 C   0  0  0  0  0  0  0  0  0  0  0  0
   17.2680    0.5210    4.8730 C   0  0  0  0  0  0  0  0  0  0  0  0
   18.2650   -1.9900    7.1080 C   0  0  0  0  0  0  0  0  0  0  0  0
   16.9540   -2.3430    7.0860 F   0  0  0  0  0  0  0  0  0  0  0  0
   19.0950   -2.4510    8.1620 C   0  0  0  0  0  0  0  0  0  0  0  0
   18.5570   -3.2530    9.1440 N   0  0  0  0  0  0  0  0  0  0  0  0
   19.3340   -3.7130   10.1440 C   0  0  0  0  0  0  0  0  0  0  0  0
   20.6240   -3.3810   10.1940 N   0  0  0  0  0  0  0  0  0  0  0  0
   22.6120   -2.3660    9.4930 N   0  0  0  0  0  0  0  0  0  0  0  0
   24.7090   -3.4730   10.1490 C   0  0  0  0  0  0  0  0  0  0  0  0
   25.5780   -2.4200    9.8380 N   0  0  0  0  0  0  0  0  0  0  0  0
   26.9520   -2.2190   10.2900 C   0  0  0  0  0  0  0  0  0  0  0  0
   28.0380   -4.5450   10.6390 C   0  0  0  0  0  0  0  0  0  0  0  0
   27.1520   -5.5850   11.1540 N   0  0  0  0  0  0  0  0  0  0  0  0
   27.5240   -1.2410    9.9330 O   0  0  0  0  0  0  0  0  0  0  0  0
   25.0080   -1.4730    8.9700 C   0  0  0  0  0  0  0  0  0  0  0  0
   23.5480   -1.6730    8.5530 C   0  0  0  0  0  0  0  0  0  0  0  0
   20.4080   -2.1120    8.2170 C   0  0  0  0  0  0  0  0  0  0  0  0
   20.9250   -1.2840    7.1650 C   0  0  0  0  0  0  0  0  0  0  0  0
  7  6  1  0
  8  7  1  0
  9  8  1  0
 10  9  1  0
 11 10  1  0
 12 11  1  0
 13 12  1  0
 14  1  1  0
 14 13  1  0
 14 10  1  0
 15  1  1  0
 16 15  1  0
 16  9  1  0
 16  2  1  0
 17  8  1  0
 18 17  1  0
 19 17  1  0
 20 19  1  0
 21 20  1  0
 22 21  1  0
 22  3  1  0
 23  3  1  0
 23  4  1  0
 24  4  1  0
 25 24  1  0
 26 25  1  0
 26  5  1  0
 27  5  1  0
 28 27  1  0
 29 26  1  0
 30 25  1  0
 31 30  1  0
 31 23  1  0
 32 19  1  0
 32  3  1  0
 33 32  1  0
 33  7  1  0
M  END
$$$$

     RDKit          3D

 41 45  0  0  0  0  0  0  0  0999 V2000
   25.7870   -2.4530    9.8880 C   0  0  0  0  0  0  0  0  0  0  0  0
   24.6350   -3.4680    9.8500 C   0  0  1  0  0  0  0  0  0  0  0  0
   24.4160   -4.1110   11.2190 C   0  0  0  0  0  0  0  0  0  0  0  0
   23.9410   -3.1050   12.1960 N   0  0  0  0  0  0  0  0  0  0  0  0
   24.2790   -3.1810   13.4790 C   0  0  0  0  0  0  0  0  0  0  0  0
   23.8790   -2.3330   14.2780 O   0  0  0  0  0  0  0  0  0  0  0  0
   25.1620   -4.3210   13.9800 C   0  0  0  0  0  0  0  0  0  0  0  0
   25.9710   -4.1110   15.2590 C   0  0  0  0  0  0  0  0  0  0  0  0
   23.0900   -1.9890   11.7350 C   0  0  0  0  0  0  0  0  0  0  0  0
   22.4120   -2.3260   10.4180 C   0  0  0  0  0  0  0  0  0  0  0  0
   23.3960   -2.8010    9.4010 N   0  0  0  0  0  0  0  0  0  0  0  0
   23.2480   -2.4890    8.0300 C   0  0  0  0  0  0  0  0  0  0  0  0
   24.3580   -2.6180    7.2790 N   0  0  0  0  0  0  0  0  0  0  0  0
   24.3770   -2.3320    5.9720 C   0  0  0  0  0  0  0  0  0  0  0  0
   25.4130   -2.4690    5.3240 O   0  0  0  0  0  0  0  0  0  0  0  0
   23.2240   -1.8830    5.3470 N   0  0  0  0  0  0  0  0  0  0  0  0
   23.2650   -1.5800    3.9880 C   0  0  0  0  0  0  0  0  0  0  0  0
   22.8990   -2.5450    3.0660 C   0  0  0  0  0  0  0  0  0  0  0  0
   22.4610   -3.9270    3.5430 C   0  0  0  0  0  0  0  0  0  0  0  0
   22.9460   -2.2290    1.7130 C   0  0  0  0  0  0  0  0  0  0  0  0
   23.3590   -0.9560    1.3360 C   0  0  0  0  0  0  0  0  0  0  0  0
   23.7050   -0.0500    2.2370 N   0  0  0  0  0  0  0  0  0  0  0  0
   23.6770   -0.3200    3.5530 C   0  0  0  0  0  0  0  0  0  0  0  0
   24.0890    0.7810    4.5420 C   0  0  1  0  0  0  0  0  0  0  0  0
   25.5530    1.1890    4.3270 C   0  0  0  0  0  0  0  0  0  0  0  0
   23.1660    1.9860    4.3610 C   0  0  0  0  0  0  0  0  0  0  0  0
   22.0490   -1.7270    6.0770 C   0  0  0  0  0  0  0  0  0  0  0  0
   20.9400   -1.2860    5.4590 N   0  0  0  0  0  0  0  0  0  0  0  0
   22.0500   -2.0310    7.4360 C   0  0  0  0  0  0  0  0  0  0  0  0
   20.8510   -1.8670    8.1340 C   0  0  0  0  0  0  0  0  0  0  0  0
   19.7090   -1.4150    7.4670 C   0  0  0  0  0  0  0  0  0  0  0  0
   18.5480   -1.2570    8.1300 F   0  0  0  0  0  0  0  0  0  0  0  0
   19.7790   -1.1200    6.1040 C   0  0  0  0  0  0  0  0  0  0  0  0
   18.6610   -0.6630    5.4030 C   0  0  0  0  0  0  0  0  0  0  0  0
   17.9940    0.5020    5.8100 C   0  0  0  0  0  0  0  0  0  0  0  0
   18.4110    1.2120    6.8790 F   0  0  0  0  0  0  0  0  0  0  0  0
   16.8790    0.9540    5.1130 C   0  0  0  0  0  0  0  0  0  0  0  0
   16.4270    0.2520    4.0020 C   0  0  0  0  0  0  0  0  0  0  0  0
   17.0850   -0.8990    3.5890 C   0  0  0  0  0  0  0  0  0  0  0  0
   18.1990   -1.3590    4.2810 C   0  0  0  0  0  0  0  0  0  0  0  0
   18.8220   -2.4870    3.8520 O   0  0  0  0  0  0  0  0  0  0  0  0
  2  1  1  1
  3  2  1  0
  4  3  1  0
  5  4  1  0
  6  5  1  0
  7  5  1  0
  8  7  1  0
  9  4  1  0
 10  9  1  0
 11 10  1  0
 11  2  1  0
 12 11  1  0
 13 12  1  0
 14 13  1  0
 15 14  1  0
 16 14  1  0
 17 16  1  0
 18 17  1  0
 19 18  1  0
 20 18  1  0
 21 20  1  0
 22 21  1  0
 23 22  1  0
 23 17  1  0
 24 23  1  0
 24 25  1  6
 26 24  1  0
 27 16  1  0
 28 27  1  0
 29 27  1  0
 29 12  1  0
 30 29  1  0
 31 30  1  0
 32 31  1  0
 33 31  1  0
 33 28  1  0
 34 33  1  0
 35 34  1  0
 36 35  1  0
 37 35  1  0
 38 37  1  0
 39 38  1  0
 40 39  1  0
 40 34  1  0
 41 40  1  0
M  END
$$$$

     RDKit          3D

 44 49  0  0  0  0  0  0  0  0999 V2000
   24.4630   -2.6840   11.5420 N   0  0  0  0  0  0  0  0  0  0  0  0
   19.0480   -1.0430    5.9700 C   0  0  0  0  0  0  0  0  0  0  0  0
   20.2110   -0.6160    5.3900 C   0  0  0  0  0  0  0  0  0  0  0  0
   23.2590   -2.2130    9.0240 N   0  0  0  0  0  0  0  0  0  0  0  0
   21.4720   -0.7730    6.0130 C   0  0  2  0  0  0  0  0  0  0  0  0
   24.8570   -0.4720    5.1720 O   0  0  0  0  0  0  0  0  0  0  0  0
   15.9030    0.2950    4.2610 C   0  0  0  0  0  0  0  0  0  0  0  0
   17.0410    0.2760    5.1030 C   0  0  0  0  0  0  0  0  0  0  0  0
   17.4140    1.5530    5.8330 C   0  0  1  0  0  0  0  0  0  0  0  0
   23.9150   -1.2930    7.0450 N   0  0  0  0  0  0  0  0  0  0  0  0
   17.7560   -0.9420    5.2320 C   0  0  1  0  0  0  0  0  0  0  0  0
   16.3030   -2.0660    3.8200 C   0  0  0  0  0  0  0  0  0  0  0  0
   15.5530   -0.8970    3.6270 C   0  0  0  0  0  0  0  0  0  0  0  0
   22.5850   -0.3840    5.3120 N   0  0  0  0  0  0  0  0  0  0  0  0
   17.3940   -2.0830    4.6210 N   0  0  0  0  0  0  0  0  0  0  0  0
   15.0180    1.5140    4.0300 C   0  0  0  0  0  0  0  0  0  0  0  0
   20.2380   -2.2680    9.1760 O   0  0  0  0  0  0  0  0  0  0  0  0
   21.5500   -1.3890    7.2990 C   0  0  1  0  0  0  0  0  0  0  0  0
   20.3170   -1.7690    7.9000 C   0  0  0  0  0  0  0  0  0  0  0  0
   19.1160   -1.6040    7.2440 C   0  0  0  0  0  0  0  0  0  0  0  0
   21.1500   -1.8020   10.1810 C   0  0  0  0  0  0  0  0  0  0  0  0
   22.4370   -2.5380   10.1880 C   0  0  2  0  0  0  0  0  0  0  0  0
   23.1090   -2.1350   11.4850 C   0  0  0  0  0  0  0  0  0  0  0  0
   25.2790   -2.4900   10.3380 C   0  0  0  0  0  0  0  0  0  0  0  0
   24.5240   -2.9360    9.1000 C   0  0  0  0  0  0  0  0  0  0  0  0
   22.8800   -1.6090    7.8080 C   0  0  1  0  0  0  0  0  0  0  0  0
   23.7420   -0.7010    5.8790 C   0  0  2  0  0  0  0  0  0  0  0  0
   26.1170   -0.8910    5.7360 C   0  0  0  0  0  0  0  0  0  0  0  0
   27.1670   -0.3790    4.7790 C   0  0  2  0  0  0  0  0  0  0  0  0
   27.7570    0.9430    5.2410 C   0  0  0  0  0  0  0  0  0  0  0  0
   27.6170    1.9040    4.1340 C   0  0  2  0  0  0  0  0  0  0  0  0
   26.9840    1.2200    3.0310 C   0  0  0  0  0  0  0  0  0  0  0  0
   26.9160   -1.1660    2.5090 C   0  0  0  0  0  0  0  0  0  0  0  0
   24.9490   -3.2600   12.6620 C   0  0  0  0  0  0  0  0  0  0  0  0
   26.3570   -3.7430   12.6300 C   0  0  0  0  0  0  0  0  0  0  0  0
   26.7210   -4.8360   13.1300 C   0  0  0  0  0  0  0  0  0  0  0  0
   18.2860    1.4030    6.8230 F   0  0  0  0  0  0  0  0  0  0  0  0
   17.9710    2.4460    5.0170 F   0  0  0  0  0  0  0  0  0  0  0  0
   16.3630    2.1440    6.4120 F   0  0  0  0  0  0  0  0  0  0  0  0
   28.9120    2.2530    3.6930 F   0  0  0  0  0  0  0  0  0  0  0  0
   26.5690   -0.1150    3.4640 N   0  0  0  0  0  0  0  0  0  0  0  0
   15.9800   -3.2390    3.2100 N   0  0  0  0  0  0  0  0  0  0  0  0
   24.2660   -3.3790   13.6680 O   0  0  0  0  0  0  0  0  0  0  0  0
   17.6670   -2.0660    8.0450 Cl  0  0  0  0  0  0  0  0  0  0  0  0
  3  2  1  0
  5  3  1  6
  8  7  1  0
  9  8  1  0
 11  8  1  0
 11  2  1  6
 13 12  1  0
 13  7  1  0
 14  5  1  0
 15 12  1  0
 15 11  1  0
 16  7  1  0
 18  5  1  0
 18 19  1  6
 19 17  1  0
 20 19  1  0
 20  2  1  0
 21 17  1  0
 22 21  1  6
 22  4  1  0
 23 22  1  0
 23  1  1  0
 24  1  1  0
 25 24  1  0
 25  4  1  0
 26 18  1  0
 26 10  1  6
 26  4  1  0
 27 14  1  0
 27  6  1  6
 27 10  1  0
 28  6  1  0
 29 28  1  1
 30 29  1  0
 31 30  1  0
 32 31  1  0
 34  1  1  0
 35 34  1  0
 36 35  1  0
  9 37  1  1
 38  9  1  0
 39  9  1  0
 31 40  1  6
 41 33  1  0
 41 32  1  0
 41 29  1  0
 42 12  1  0
 43 34  1  0
 44 20  1  0
M  END
$$$$

     RDKit          3D

 26 27  0  0  0  0  0  0  0  0999 V2000
   24.2030   -3.9020   10.7150 C   0  0  2  0  0  0  0  0  0  0  0  0
   25.9990   -4.5160   14.1440 C   0  0  0  0  0  0  0  0  0  0  0  0
   23.9910   -2.4960   11.2340 C   0  0  0  0  0  0  0  0  0  0  0  0
   24.2740   -1.5150   10.1710 C   0  0  0  0  0  0  0  0  0  0  0  0
   17.8610    0.5290    7.6940 C   0  0  0  0  0  0  0  0  0  0  0  0
   15.8150   -0.7540    8.8150 Cl  0  0  0  0  0  0  0  0  0  0  0  0
   17.4720   -0.2090    8.7620 C   0  0  0  0  0  0  0  0  0  0  0  0
   18.3630   -0.5720    9.8140 C   0  0  2  0  0  0  0  0  0  0  0  0
   17.8210   -1.6250   11.4490 I   0  0  0  0  0  0  0  0  0  0  0  0
   19.6720   -0.1220    9.7520 C   0  0  0  0  0  0  0  0  0  0  0  0
   20.0730    0.6570    8.6910 C   0  0  0  0  0  0  0  0  0  0  0  0
   21.3830    1.1600    8.5780 N   0  0  0  0  0  0  0  0  0  0  0  0
   22.4790    0.4120    9.1650 C   0  0  0  0  0  0  0  0  0  0  0  0
   22.6860   -0.8600    8.3930 C   0  0  1  0  0  0  0  0  0  0  0  0
   23.5210   -1.7880    8.9400 N   0  0  0  0  0  0  0  0  0  0  0  0
   23.7190   -3.1270    8.3490 C   0  0  0  0  0  0  0  0  0  0  0  0
   23.4660   -4.1160    9.4060 C   0  0  0  0  0  0  0  0  0  0  0  0
   23.7280   -4.8320   11.7490 N   0  0  0  0  0  0  0  0  0  0  0  0
   24.7730   -6.0290   12.2020 S   0  0  1  0  0  0  0  0  0  0  0  0
   26.2070   -5.2900   12.8580 C   0  0  0  0  0  0  0  0  0  0  0  0
   24.1040   -6.7410   13.2280 O   0  0  0  0  0  0  0  0  0  0  0  0
   25.1520   -6.6870   10.9860 O   0  0  0  0  0  0  0  0  0  0  0  0
   22.0550   -1.1020    7.3450 O   0  0  0  0  0  0  0  0  0  0  0  0
   19.1980    1.0030    7.6720 C   0  0  0  0  0  0  0  0  0  0  0  0
   19.7160    1.7770    6.6800 O   0  0  0  0  0  0  0  0  0  0  0  0
   18.8190    2.1980    5.6400 C   0  0  0  0  0  0  0  0  0  0  0  0
  3  1  1  0
  4  3  1  0
  7  6  1  0
  7  5  1  0
  8  7  1  0
  8  9  1  1
 10  8  1  0
 11 10  1  0
 12 11  1  0
 13 12  1  0
 14 13  1  0
 15 14  1  0
 15  4  1  0
 16 15  1  0
 17 16  1  0
 17  1  1  0
  1 18  1  1
 19 18  1  0
 20 19  1  0
 20  2  1  0
 19 21  1  1
 22 19  1  0
 14 23  1  1
 24 11  1  0
 24  5  1  0
 25 24  1  0
 26 25  1  0
M  END
$$$$

     RDKit          3D

 43 49  0  0  0  0  0  0  0  0999 V2000
   15.9750    1.4940    3.4550 C   0  0  0  0  0  0  0  0  0  0  0  0
   15.1400    0.5200    2.9310 C   0  0  0  0  0  0  0  0  0  0  0  0
   20.0200   -1.3370    6.8520 C   0  0  0  0  0  0  0  0  0  0  0  0
   16.8150   -2.5120    3.6120 C   0  0  0  0  0  0  0  0  0  0  0  0
   21.1790   -1.5340    6.1100 C   0  0  1  0  0  0  0  0  0  0  0  0
   16.7660   -1.0970    3.7020 C   0  0  0  0  0  0  0  0  0  0  0  0
   17.5920   -0.1050    4.2370 C   0  0  0  0  0  0  0  0  0  0  0  0
   18.8260   -0.5350    4.9190 C   0  0  0  0  0  0  0  0  0  0  0  0
   17.1680    1.2040    4.1000 C   0  0  0  0  0  0  0  0  0  0  0  0
   21.1700   -1.1110    4.7980 C   0  0  0  0  0  0  0  0  0  0  0  0
   15.5680   -0.7780    3.0680 C   0  0  0  0  0  0  0  0  0  0  0  0
   20.0070   -0.6380    4.2250 C   0  0  0  0  0  0  0  0  0  0  0  0
   18.8620   -0.8870    6.2480 C   0  0  0  0  0  0  0  0  0  0  0  0
   22.3890   -1.9230    6.6660 C   0  0  0  0  0  0  0  0  0  0  0  0
   23.3720   -1.5010    4.6530 C   0  0  0  0  0  0  0  0  0  0  0  0
   25.7560   -4.2560   14.5800 C   0  0  0  0  0  0  0  0  0  0  0  0
   24.3570   -4.6510   14.1440 C   0  0  0  0  0  0  0  0  0  0  0  0
   23.6130   -3.3460   13.9450 C   0  0  0  0  0  0  0  0  0  0  0  0
   26.8840   -1.5540    3.0440 C   0  0  0  0  0  0  0  0  0  0  0  0
   26.2120   -0.7120    5.4400 C   0  0  0  0  0  0  0  0  0  0  0  0
   23.6200   -1.8280    9.9390 C   0  0  0  0  0  0  0  0  0  0  0  0
   21.2850   -2.8760   10.0850 C   0  0  0  0  0  0  0  0  0  0  0  0
   27.7460   -0.3070    2.9470 C   0  0  0  0  0  0  0  0  0  0  0  0
   26.9740    0.5760    5.2000 C   0  0  0  0  0  0  0  0  0  0  0  0
   23.9730   -2.6490    8.6120 C   0  0  0  0  0  0  0  0  0  0  0  0
   21.5520   -3.0170    8.6650 C   0  0  0  0  0  0  0  0  0  0  0  0
   22.2630   -2.1070   12.1380 C   0  0  0  0  0  0  0  0  0  0  0  0
   23.2670   -3.8840   11.4190 C   0  0  0  0  0  0  0  0  0  0  0  0
   25.8360   -1.4350    4.1190 C   0  0  1  0  0  0  0  0  0  0  0  0
   22.6040   -2.6610   10.7640 C   0  0  2  0  0  0  0  0  0  0  0  0
   18.0090    2.3140    4.6620 C   0  0  0  0  0  0  0  0  0  0  0  0
   27.8800    2.1170    3.3430 C   0  0  0  0  0  0  0  0  0  0  0  0
   15.7550   -3.0290    2.9850 N   0  0  0  0  0  0  0  0  0  0  0  0
   22.2540   -1.1730    4.0270 N   0  0  0  0  0  0  0  0  0  0  0  0
   23.4800   -1.8210    5.9540 N   0  0  0  0  0  0  0  0  0  0  0  0
   15.0110   -1.9630    2.6620 N   0  0  0  0  0  0  0  0  0  0  0  0
   22.6580   -2.3890    7.9460 N   0  0  0  0  0  0  0  0  0  0  0  0
   23.1020   -3.1680   12.6720 N   0  0  0  0  0  0  0  0  0  0  0  0
   27.2490    0.8370    3.7470 N   0  0  0  0  0  0  0  0  0  0  0  0
   24.3960   -1.4650    3.7350 N   0  0  0  0  0  0  0  0  0  0  0  0
   23.5010   -2.5820   14.8880 O   0  0  0  0  0  0  0  0  0  0  0  0
   20.0560   -0.2530    2.9460 F   0  0  0  0  0  0  0  0  0  0  0  0
   17.4490   -0.7410    7.1860 Cl  0  0  0  0  0  0  0  0  0  0  0  0
  2  1  1  0
  5  3  1  1
  6  4  1  0
  7  6  1  0
  8  7  1  0
  9  1  1  0
  9  7  1  0
 10  5  1  0
 11  2  1  0
 11  6  1  0
 12 10  1  0
 12  8  1  0
 13  8  1  0
 13  3  1  0
 14  5  1  0
 17 16  1  0
 18 17  1  0
 23 19  1  0
 24 20  1  0
 25 21  1  0
 26 22  1  0
 29 20  1  0
 29 19  1  0
 30 22  1  6
 30 21  1  0
 30 28  1  0
 30 27  1  0
 31  9  1  0
 33  4  1  0
 34 10  1  0
 34 15  1  0
 35 15  1  0
 35 14  1  0
 36 33  1  0
 36 11  1  0
 37 26  1  0
 37 25  1  0
 37 14  1  0
 38 28  1  0
 38 27  1  0
 38 18  1  0
 39 24  1  0
 39 32  1  0
 39 23  1  0
 29 40  1  6
 40 15  1  0
 41 18  1  0
 42 12  1  0
 43 13  1  0
M  END
$$$$

     RDKit          3D

 34 39  0  0  0  0  0  0  0  0999 V2000
   25.0680   -4.2940   13.2240 C   0  0  0  0  0  0  0  0  0  0  0  0
   24.2170   -3.0780   12.8020 C   0  0  0  0  0  0  0  0  0  0  0  0
   24.8580   -3.3060   10.3490 C   0  0  0  0  0  0  0  0  0  0  0  0
   21.6450   -0.9660    5.7440 C   0  0  0  0  0  0  0  0  0  0  0  0
   20.4440   -0.5050    5.1610 C   0  0  0  0  0  0  0  0  0  0  0  0
   19.2180   -0.6980    5.7210 C   0  0  2  0  0  0  0  0  0  0  0  0
   19.1610   -1.4100    6.9180 C   0  0  2  0  0  0  0  0  0  0  0  0
   20.2880   -1.8670    7.5370 C   0  0  2  0  0  0  0  0  0  0  0  0
   20.6280   -3.6240    9.1030 C   0  0  0  0  0  0  0  0  0  0  0  0
   21.3050   -2.9380   10.3750 C   0  0  0  0  0  0  0  0  0  0  0  0
   22.3430   -1.8950    9.9880 C   0  0  1  0  0  0  0  0  0  0  0  0
   23.3580   -1.5600   11.0540 C   0  0  0  0  0  0  0  0  0  0  0  0
   17.9780   -0.2580    4.9970 C   0  0  0  0  0  0  0  0  0  0  0  0
   15.6140    0.4260    3.6230 C   0  0  0  0  0  0  0  0  0  0  0  0
   16.1380   -0.8470    3.5370 C   0  0  0  0  0  0  0  0  0  0  0  0
   17.3240   -1.2140    4.2040 C   0  0  0  0  0  0  0  0  0  0  0  0
   17.5250   -2.5670    3.8500 C   0  0  0  0  0  0  0  0  0  0  0  0
   23.8860   -1.2160    5.5990 C   0  0  0  0  0  0  0  0  0  0  0  0
   17.6390   -1.8090    7.6020 Cl  0  0  0  0  0  0  0  0  0  0  0  0
   21.5800   -1.6530    6.9930 C   0  0  0  0  0  0  0  0  0  0  0  0
   19.9250   -2.6140    8.6580 O   0  0  0  0  0  0  0  0  0  0  0  0
   23.0490   -2.4680    8.8440 N   0  0  0  0  0  0  0  0  0  0  0  0
   23.9380   -3.5900    9.1720 C   0  0  0  0  0  0  0  0  0  0  0  0
   24.1390   -2.7270   11.4910 N   0  0  0  0  0  0  0  0  0  0  0  0
   23.6470   -2.4300   13.6820 O   0  0  0  0  0  0  0  0  0  0  0  0
   26.2780   -3.9000   14.1290 C   0  0  0  0  0  0  0  0  0  0  0  0
   22.8130   -0.7190    5.0650 N   0  0  0  0  0  0  0  0  0  0  0  0
   24.0180   -1.8630    6.7600 N   0  0  0  0  0  0  0  0  0  0  0  0
   22.9020   -2.0200    7.4670 C   0  0  2  0  0  0  0  0  0  0  0  0
   16.5600   -3.0010    3.0600 N   0  0  0  0  0  0  0  0  0  0  0  0
   15.7270   -1.9450    2.8640 N   0  0  0  0  0  0  0  0  0  0  0  0
   16.2750    1.3600    4.3840 C   0  0  0  0  0  0  0  0  0  0  0  0
   17.4400    1.0480    5.0860 C   0  0  0  0  0  0  0  0  0  0  0  0
   18.0650    2.1310    5.9290 C   0  0  0  0  0  0  0  0  0  0  0  0
  2  1  1  0
  5  4  1  0
  6  5  1  0
  7  6  1  0
  8  7  1  0
 10  9  1  0
 11 10  1  1
 12 11  1  0
  6 13  1  6
 15 14  1  0
 16 15  1  0
 16 13  1  0
 17 16  1  0
  7 19  1  6
 20  8  1  0
 20  4  1  0
 21  9  1  0
  8 21  1  6
 22 11  1  0
 23 22  1  0
 23  3  1  0
 24  3  1  0
 24 12  1  0
 24  2  1  0
 25  2  1  0
 26  1  1  0
 27  4  1  0
 27 18  1  0
 28 18  1  0
 29 20  1  0
 29 28  1  1
 29 22  1  0
 30 17  1  0
 31 15  1  0
 31 30  1  0
 32 14  1  0
 33 32  1  0
 33 13  1  0
 34 33  1  0
M  END
$$$$

     RDKit          3D

 56 63  0  0  0  0  0  0  0  0999 V2000
   16.5930   -1.6870    3.7700 C   0  0  0  0  0  0  0  0  0  0  0  0
   20.2670   -1.8920    7.9790 C   0  0  0  0  0  0  0  0  0  0  0  0
   17.8570   -0.5430    5.4070 C   0  0  2  0  0  0  0  0  0  0  0  0
   17.0230    0.5720    5.3570 C   0  0  0  0  0  0  0  0  0  0  0  0
   17.2810    1.7680    6.2310 C   0  0  1  0  0  0  0  0  0  0  0  0
   19.1020   -0.8370    6.1610 C   0  0  1  0  0  0  0  0  0  0  0  0
   19.0890   -1.5560    7.3610 C   0  0  2  0  0  0  0  0  0  0  0  0
   15.7140   -0.6100    3.6840 C   0  0  0  0  0  0  0  0  0  0  0  0
   14.9580    1.6610    4.3530 C   0  0  0  0  0  0  0  0  0  0  0  0
   21.5070   -1.5660    7.3840 C   0  0  0  0  0  0  0  0  0  0  0  0
   21.5060   -0.8670    6.1560 C   0  0  0  0  0  0  0  0  0  0  0  0
   20.3030   -0.5100    5.5510 C   0  0  0  0  0  0  0  0  0  0  0  0
   15.9310    0.5150    4.4800 C   0  0  0  0  0  0  0  0  0  0  0  0
   23.7990   -0.8990    6.1190 C   0  0  0  0  0  0  0  0  0  0  0  0
   22.7760   -1.8910    7.9460 C   0  0  2  0  0  0  0  0  0  0  0  0
   23.9550   -3.5700    9.2650 C   0  0  0  0  0  0  0  0  0  0  0  0
   25.0010   -3.0390   10.2580 C   0  0  0  0  0  0  0  0  0  0  0  0
   23.3650   -1.4840   11.2860 C   0  0  0  0  0  0  0  0  0  0  0  0
   22.2850   -2.0230   10.3470 C   0  0  2  0  0  0  0  0  0  0  0  0
   21.5060   -3.1700   11.0140 C   0  0  0  0  0  0  0  0  0  0  0  0
   24.6050   -3.0390   12.7030 C   0  0  1  0  0  0  0  0  0  0  0  0
   25.5430   -4.1510   12.8980 C   0  0  0  0  0  0  0  0  0  0  0  0
   25.9130   -4.5450   14.1300 C   0  0  0  0  0  0  0  0  0  0  0  0
   26.8000   -5.7070   14.2990 C   0  0  2  0  0  0  0  0  0  0  0  0
   26.3550   -6.9440   13.7970 C   0  0  0  0  0  0  0  0  0  0  0  0
   27.1380   -8.0670   13.9450 C   0  0  0  0  0  0  0  0  0  0  0  0
   28.3520   -7.9790   14.5980 C   0  0  0  0  0  0  0  0  0  0  0  0
   28.7880   -6.7650   15.1150 C   0  0  0  0  0  0  0  0  0  0  0  0
   28.0200   -5.6390   14.9770 C   0  0  0  0  0  0  0  0  0  0  0  0
   28.4830   -4.3250   15.5200 C   0  0  0  0  0  0  0  0  0  0  0  0
   30.5470   -5.3810   16.3010 C   0  0  0  0  0  0  0  0  0  0  0  0
   30.1240   -6.7640   15.8090 C   0  0  0  0  0  0  0  0  0  0  0  0
   26.1840   -0.9290    5.9650 C   0  0  0  0  0  0  0  0  0  0  0  0
   27.2390   -0.3220    5.0490 C   0  0  2  0  0  0  0  0  0  0  0  0
   28.6450   -0.6720    5.5690 C   0  0  0  0  0  0  0  0  0  0  0  0
   29.0720   -1.8400    4.6380 C   0  0  0  0  0  0  0  0  0  0  0  0
   28.4390   -1.4020    3.2940 C   0  0  0  0  0  0  0  0  0  0  0  0
   26.6600    0.2080    2.7920 C   0  0  0  0  0  0  0  0  0  0  0  0
   27.2170    1.4830    3.4130 C   0  0  0  0  0  0  0  0  0  0  0  0
   27.7040    2.5400    2.8150 C   0  0  0  0  0  0  0  0  0  0  0  0
   27.0630    1.2100    4.9130 C   0  0  0  0  0  0  0  0  0  0  0  0
   16.1000    2.1990    6.8390 F   0  0  0  0  0  0  0  0  0  0  0  0
   18.1420    1.4150    7.2630 F   0  0  0  0  0  0  0  0  0  0  0  0
   20.3300    0.1540    4.3750 F   0  0  0  0  0  0  0  0  0  0  0  0
   17.8510    2.8110    5.5010 F   0  0  0  0  0  0  0  0  0  0  0  0
   22.6620   -0.5430    5.5770 N   0  0  0  0  0  0  0  0  0  0  0  0
   23.8760   -1.5620    7.2680 N   0  0  0  0  0  0  0  0  0  0  0  0
   22.8530   -2.6060    9.1200 N   0  0  0  0  0  0  0  0  0  0  0  0
   24.3350   -2.5520   11.4690 N   0  0  0  0  0  0  0  0  0  0  0  0
   29.3860   -4.5320   16.6640 N   0  0  0  0  0  0  0  0  0  0  0  0
   17.6080   -1.5930    4.6110 N   0  0  0  0  0  0  0  0  0  0  0  0
   27.1080   -0.8830    3.6860 N   0  0  0  0  0  0  0  0  0  0  0  0
   16.4240   -2.8410    3.0000 N   0  0  0  0  0  0  0  0  0  0  0  0
   23.9820   -2.6090   13.6620 O   0  0  0  0  0  0  0  0  0  0  0  0
   24.9150   -0.5370    5.4500 O   0  0  0  0  0  0  0  0  0  0  0  0
   17.5510   -1.9450    8.0560 Cl  0  0  0  0  0  0  0  0  0  0  0  0
  4  3  1  0
  5  4  1  0
  6  3  1  0
  7  6  1  0
  7  2  1  0
  8  1  1  0
 10  2  1  0
 11 10  1  0
 12 11  1  0
  6 12  1  6
 13  9  1  0
 13  8  1  0
 13  4  1  0
 15 10  1  0
 17 16  1  0
 19 18  1  0
 19 20  1  1
 22 21  1  0
 23 22  1  0
 24 23  1  1
 25 24  1  0
 26 25  1  0
 27 26  1  0
 28 27  1  0
 29 24  1  0
 29 28  1  0
 30 29  1  0
 32 28  1  0
 32 31  1  0
 34 33  1  1
 35 34  1  0
 36 35  1  0
 37 36  1  0
 39 38  1  0
 40 39  1  0
 41 39  1  0
 41 34  1  0
  5 42  1  1
 43  5  1  0
 44 12  1  0
 45  5  1  0
 46 11  1  0
 46 14  1  0
 47 15  1  0
 47 14  1  0
 48 19  1  0
 48 16  1  0
 15 48  1  6
 49 17  1  0
 49 21  1  0
 49 18  1  0
 50 31  1  0
 50 30  1  0
  3 51  1  6
 51  1  1  0
 52 38  1  0
 52 34  1  0
 52 37  1  0
 53  1  1  0
 21 54  1  6
 55 33  1  0
 55 14  1  0
  7 56  1  1
M  END
$$$$

     RDKit          3D

 44 51  0  0  0  0  0  0  0  0999 V2000
   15.6100    1.7850    4.8670 C   0  0  0  0  0  0  0  0  0  0  0  0
   15.2540    0.8070    3.9690 C   0  0  0  0  0  0  0  0  0  0  0  0
   16.5780    1.5140    5.7060 C   0  0  0  0  0  0  0  0  0  0  0  0
   17.0190   -0.6430    4.8970 C   0  0  2  0  0  0  0  0  0  0  0  0
   17.2730    0.4290    5.8400 C   0  0  0  0  0  0  0  0  0  0  0  0
   15.9330   -0.4810    3.9220 C   0  0  1  0  0  0  0  0  0  0  0  0
   16.2000   -2.6490    3.1270 C   0  0  0  0  0  0  0  0  0  0  0  0
   24.8980   -2.1330    9.9830 C   0  0  0  0  0  0  0  0  0  0  0  0
   24.4160   -4.2160    8.5810 C   0  0  0  0  0  0  0  0  0  0  0  0
   15.5580   -1.4850    3.0770 C   0  0  0  0  0  0  0  0  0  0  0  0
   21.5170   -2.5860    6.6930 C   0  0  2  0  0  0  0  0  0  0  0  0
   21.4500   -1.6350    5.6530 C   0  0  0  0  0  0  0  0  0  0  0  0
   23.6930   -1.3360    5.7310 C   0  0  0  0  0  0  0  0  0  0  0  0
   22.8450   -2.7920    7.2310 C   0  0  0  0  0  0  0  0  0  0  0  0
   20.3690   -3.3240    7.0410 C   0  0  0  0  0  0  0  0  0  0  0  0
   19.0210   -2.1320    5.6410 C   0  0  1  0  0  0  0  0  0  0  0  0
   20.1950   -1.4050    5.1740 C   0  0  0  0  0  0  0  0  0  0  0  0
   17.7430   -1.8750    4.9090 C   0  0  2  0  0  0  0  0  0  0  0  0
   26.0650   -1.0120    5.8150 C   0  0  0  0  0  0  0  0  0  0  0  0
   22.1180   -3.6280    9.5680 C   0  0  0  0  0  0  0  0  0  0  0  0
   22.9160   -3.1270   10.7620 C   0  0  2  0  0  0  0  0  0  0  0  0
   24.9550   -3.6740    9.9000 C   0  0  2  0  0  0  0  0  0  0  0  0
   23.6170   -1.7770   10.5340 C   0  0  0  0  0  0  0  0  0  0  0  0
   17.3060   -2.9190    3.9660 C   0  0  0  0  0  0  0  0  0  0  0  0
   27.1450   -0.5020    4.7810 C   0  0  1  0  0  0  0  0  0  0  0  0
   26.8720    0.9960    4.4130 C   0  0  0  0  0  0  0  0  0  0  0  0
   27.0700    1.0320    2.9010 C   0  0  2  0  0  0  0  0  0  0  0  0
   26.5660   -0.3120    2.4230 C   0  0  0  0  0  0  0  0  0  0  0  0
   28.3550   -1.8860    3.2180 C   0  0  0  0  0  0  0  0  0  0  0  0
   28.9260   -2.0800    4.6090 C   0  0  0  0  0  0  0  0  0  0  0  0
   28.5540   -0.7450    5.3600 C   0  0  0  0  0  0  0  0  0  0  0  0
   18.2910    0.2840    6.9700 C   0  0  0  0  0  0  0  0  0  0  0  0
   19.0650    0.2010    7.8830 C   0  0  0  0  0  0  0  0  0  0  0  0
   20.0850   -0.4280    4.1980 F   0  0  0  0  0  0  0  0  0  0  0  0
   28.4290    1.1810    2.6500 F   0  0  0  0  0  0  0  0  0  0  0  0
   16.8680    2.5350    6.6480 F   0  0  0  0  0  0  0  0  0  0  0  0
   22.5390   -0.9670    5.1820 N   0  0  0  0  0  0  0  0  0  0  0  0
   23.9120   -2.1990    6.7240 N   0  0  0  0  0  0  0  0  0  0  0  0
   19.1740   -3.1140    6.4640 N   0  0  0  0  0  0  0  0  0  0  0  0
   23.0460   -3.6550    8.3200 N   0  0  0  0  0  0  0  0  0  0  0  0
   24.0480   -4.0590   11.0130 N   0  0  0  0  0  0  0  0  0  0  0  0
   27.0390   -1.2570    3.4730 N   0  0  0  0  0  0  0  0  0  0  0  0
   24.8030   -0.7600    5.1830 O   0  0  0  0  0  0  0  0  0  0  0  0
   15.8240   -3.7680    2.3750 O   0  0  0  0  0  0  0  0  0  0  0  0
  2  1  1  0
  3  1  1  0
  4  5  1  1
  5  3  1  0
  6  2  1  1
  6  4  1  0
 10  7  1  0
 10  6  1  0
 12 11  1  0
 14 11  1  0
 11 15  1  6
 17 16  1  0
 17 12  1  0
 18  4  1  0
 18 16  1  0
 21 20  1  6
 22  9  1  6
 22  8  1  0
 23 21  1  0
 23  8  1  0
 24  7  1  0
 18 24  1  6
 25 19  1  1
 26 25  1  0
 27 26  1  0
 28 27  1  0
 30 29  1  0
 31 25  1  0
 31 30  1  0
 32  5  1  0
 33 32  1  0
 34 17  1  0
 27 35  1  1
 36  3  1  0
 37 12  1  0
 37 13  1  0
 38 14  1  0
 38 13  1  0
 16 39  1  6
 39 15  1  0
 40 20  1  0
 40 14  1  0
 40  9  1  0
 41 22  1  0
 41 21  1  0
 42 28  1  0
 42 25  1  0
 42 29  1  0
 43 19  1  0
 43 13  1  0
 44  7  1  0
M  END
$$$$

     RDKit          3D

 14 15  0  0  0  0  0  0  0  0999 V2000
   17.7360   -0.0430    6.2400 C   0  0  1  0  0  0  0  0  0  0  0  0
   15.9080   -2.1040    3.5380 C   0  0  0  0  0  0  0  0  0  0  0  0
   17.5520   -3.0720    5.0410 C   0  0  0  0  0  0  0  0  0  0  0  0
   15.7420    1.6670    4.6930 C   0  0  0  0  0  0  0  0  0  0  0  0
   17.4590   -0.7930    7.5510 C   0  0  0  0  0  0  0  0  0  0  0  0
   15.6240   -3.2190    2.8410 N   0  0  0  0  0  0  0  0  0  0  0  0
   16.8500   -0.5940    5.0840 C   0  0  0  0  0  0  0  0  0  0  0  0
   16.8180   -1.9340    4.5780 C   0  0  0  0  0  0  0  0  0  0  0  0
   16.0140    0.2230    4.3900 C   0  0  1  0  0  0  0  0  0  0  0  0
   15.1110   -0.6170    3.1630 S   0  0  0  0  0  0  0  0  0  0  0  0
   17.4870    1.4590    6.5000 C   0  0  0  0  0  0  0  0  0  0  0  0
   19.2300   -0.1890    5.9050 C   0  0  0  0  0  0  0  0  0  0  0  0
   18.1080   -4.0160    5.3680 N   0  0  0  0  0  0  0  0  0  0  0  0
   16.0840    1.9630    6.1540 C   0  0  0  0  0  0  0  0  0  0  0  0
  1  5  1  1
  6  2  1  0
  7  1  1  0
  8  2  1  0
  8  7  1  0
  8  3  1  0
  9  4  1  1
  9  7  1  0
 10  9  1  0
 10  2  1  0
 11  1  1  0
 12  1  1  0
 13  3  1  0
 14  4  1  0
 14 11  1  0
M  END
$$$$

     RDKit          3D

 13 14  0  0  0  0  0  0  0  0999 V2000
   24.6810    1.3400    4.8860 C   0  0  0  0  0  0  0  0  0  0  0  0
   23.9670    1.1170    3.7260 C   0  0  2  0  0  0  0  0  0  0  0  0
   24.5870    0.9580    2.5040 C   0  0  0  0  0  0  0  0  0  0  0  0
   26.0520    1.5000    4.8230 C   0  0  0  0  0  0  0  0  0  0  0  0
   26.6940    1.4080    3.5970 C   0  0  1  0  0  0  0  0  0  0  0  0
   25.9590    1.0910    2.4380 C   0  0  0  0  0  0  0  0  0  0  0  0
   30.0810    1.7540    2.2280 C   0  0  0  0  0  0  0  0  0  0  0  0
   26.5650    0.8500    1.2280 O   0  0  0  0  0  0  0  0  0  0  0  0
   27.9300    1.2890    1.0960 C   0  0  0  0  0  0  0  0  0  0  0  0
   28.6950    1.1280    2.3920 C   0  0  2  0  0  0  0  0  0  0  0  0
   28.0310    1.7310    3.5310 O   0  0  0  0  0  0  0  0  0  0  0  0
   22.2320    1.1690    3.7800 Cl  0  0  0  0  0  0  0  0  0  0  0  0
   30.2110    3.1230    2.8020 N   0  0  0  0  0  0  0  0  0  0  0  0
  2  1  1  0
  3  2  1  0
  4  1  1  0
  5  4  1  6
  6  5  1  0
  6  3  1  0
  8  6  1  0
  9  8  1  0
 10  9  1  0
 10  7  1  6
 11  5  1  0
 11 10  1  0
  2 12  1  6
 13  7  1  0
M  END
$$$$

     RDKit          3D

 30 33  0  0  0  0  0  0  0  0999 V2000
   20.9960   -1.0250    2.6880 C   0  0  0  0  0  0  0  0  0  0  0  0
   20.8930   -0.9510    3.8480 C   0  0  0  0  0  0  0  0  0  0  0  0
   20.7830   -0.8620    5.2680 C   0  0  0  0  0  0  0  0  0  0  0  0
   21.9390   -1.0960    6.0010 C   0  0  0  0  0  0  0  0  0  0  0  0
   21.9030   -1.0270    7.3870 C   0  0  0  0  0  0  0  0  0  0  0  0
   23.2630   -1.3200    8.0440 C   0  0  0  0  0  0  0  0  0  0  0  0
   23.0420   -2.1740    9.2170 N   0  0  0  0  0  0  0  0  0  0  0  0
   24.2630   -2.9420    9.5200 C   0  0  0  0  0  0  0  0  0  0  0  0
   23.9800   -3.9420   10.6520 C   0  0  0  0  0  0  0  0  0  0  0  0
   23.4230   -3.2270   11.8180 N   0  0  0  0  0  0  0  0  0  0  0  0
   23.9250   -3.4410   13.0440 C   0  0  0  0  0  0  0  0  0  0  0  0
   23.5010   -2.8350   14.0190 O   0  0  0  0  0  0  0  0  0  0  0  0
   25.0530   -4.4400   13.2730 C   0  0  0  0  0  0  0  0  0  0  0  0
   26.3010   -4.0410   14.0630 C   0  0  0  0  0  0  0  0  0  0  0  0
   22.3250   -2.2560   11.5700 C   0  0  0  0  0  0  0  0  0  0  0  0
   22.7160   -1.3510   10.3960 C   0  0  2  0  0  0  0  0  0  0  0  0
   21.6800   -0.2470   10.0890 C   0  0  0  0  0  0  0  0  0  0  0  0
   20.5120   -0.6290    9.3820 O   0  0  0  0  0  0  0  0  0  0  0  0
   20.7120   -0.7200    8.0310 C   0  0  0  0  0  0  0  0  0  0  0  0
   19.5510   -0.4830    7.2920 C   0  0  0  0  0  0  0  0  0  0  0  0
   18.3980   -0.1880    7.9160 F   0  0  0  0  0  0  0  0  0  0  0  0
   19.5760   -0.5410    5.8980 C   0  0  2  0  0  0  0  0  0  0  0  0
   18.4060   -0.3480    5.1390 C   0  0  0  0  0  0  0  0  0  0  0  0
   17.8140    0.8890    4.8840 C   0  0  0  0  0  0  0  0  0  0  0  0
   18.4760    2.3530    5.5070 Cl  0  0  0  0  0  0  0  0  0  0  0  0
   16.6490    0.9650    4.1080 C   0  0  0  0  0  0  0  0  0  0  0  0
   16.0600   -0.1850    3.5780 C   0  0  0  0  0  0  0  0  0  0  0  0
   16.6450   -1.4220    3.8250 C   0  0  0  0  0  0  0  0  0  0  0  0
   17.7990   -1.4960    4.6090 C   0  0  0  0  0  0  0  0  0  0  0  0
   18.3550   -2.7180    4.8340 O   0  0  0  0  0  0  0  0  0  0  0  0
  2  1  1  0
  3  2  1  0
  4  3  1  0
  5  4  1  0
  6  5  1  0
  7  6  1  0
  8  7  1  0
  9  8  1  0
 10  9  1  0
 11 10  1  0
 12 11  1  0
 13 11  1  0
 14 13  1  0
 15 10  1  0
 16  7  1  0
 16 15  1  1
 17 16  1  0
 18 17  1  0
 19 18  1  0
 19  5  1  0
 20 19  1  0
 21 20  1  0
 22  3  1  0
 22 20  1  0
 22 23  1  1
 24 23  1  0
 25 24  1  0
 26 24  1  0
 27 26  1  0
 28 27  1  0
 29 28  1  0
 29 23  1  0
 30 29  1  0
M  END
$$$$

     RDKit          3D

 31 35  0  0  0  0  0  0  0  0999 V2000
   25.3000   -4.2280   13.5940 C   0  0  0  0  0  0  0  0  0  0  0  0
   24.2690   -3.2400   13.2320 C   0  0  0  0  0  0  0  0  0  0  0  0
   22.7310   -2.2290   11.6300 C   0  0  0  0  0  0  0  0  0  0  0  0
   21.9630   -1.5960    5.9790 C   0  0  0  0  0  0  0  0  0  0  0  0
   20.7880   -1.2780    5.2880 C   0  0  0  0  0  0  0  0  0  0  0  0
   19.5590   -1.3940    5.9190 C   0  0  0  0  0  0  0  0  0  0  0  0
   18.3320   -1.0510    5.1580 C   0  0  0  0  0  0  0  0  0  0  0  0
   17.7880    0.2280    5.2030 C   0  0  0  0  0  0  0  0  0  0  0  0
   18.4340    1.2980    6.0450 C   0  0  0  0  0  0  0  0  0  0  0  0
   16.6450    0.5340    4.4790 C   0  0  0  0  0  0  0  0  0  0  0  0
   16.0280   -0.4200    3.7010 C   0  0  0  0  0  0  0  0  0  0  0  0
   16.5500   -1.7100    3.6310 C   0  0  0  0  0  0  0  0  0  0  0  0
   17.9940   -3.3940    4.0940 C   0  0  0  0  0  0  0  0  0  0  0  0
   20.6270   -2.1500    7.9350 C   0  0  0  0  0  0  0  0  0  0  0  0
   21.8850   -2.0390    7.3240 C   0  0  0  0  0  0  0  0  0  0  0  0
   24.3550   -3.5290    9.5930 C   0  0  0  0  0  0  0  0  0  0  0  0
   24.2330   -4.1870   10.9700 C   0  0  0  0  0  0  0  0  0  0  0  0
   17.9520   -1.9910    8.0480 Cl  0  0  0  0  0  0  0  0  0  0  0  0
   19.4890   -1.8370    7.2510 C   0  0  0  0  0  0  0  0  0  0  0  0
   17.7080   -2.0350    4.3600 C   0  0  0  0  0  0  0  0  0  0  0  0
   17.0930   -3.8550    3.2750 N   0  0  0  0  0  0  0  0  0  0  0  0
   16.1750   -2.8460    2.9610 N   0  0  0  0  0  0  0  0  0  0  0  0
   23.1710   -1.4940    5.3980 N   0  0  0  0  0  0  0  0  0  0  0  0
   24.2600   -1.8010    6.0600 C   0  0  0  0  0  0  0  0  0  0  0  0
   24.2390   -2.2180    7.3160 N   0  0  0  0  0  0  0  0  0  0  0  0
   23.1010   -2.3540    7.9890 C   0  0  0  0  0  0  0  0  0  0  0  0
   23.1240   -2.7890    9.3000 N   0  0  0  0  0  0  0  0  0  0  0  0
   23.0130   -1.6670   10.2390 C   0  0  0  0  0  0  0  0  0  0  0  0
   23.7670   -3.2160   11.9810 N   0  0  0  0  0  0  0  0  0  0  0  0
   23.8730   -2.4370   14.0590 O   0  0  0  0  0  0  0  0  0  0  0  0
   25.6970   -4.0190   14.9940 C   0  0  0  0  0  0  0  0  0  0  0  0
  2  1  1  0
  5  4  1  0
  6  5  1  0
  7  6  1  0
  8  7  1  0
  9  8  1  0
 10  8  1  0
 11 10  1  0
 12 11  1  0
 15 14  1  0
 15  4  1  0
 17 16  1  0
 19 18  1  0
 19 14  1  0
 19  6  1  0
 20 13  1  0
 20 12  1  0
 20  7  1  0
 21 13  1  0
 22 21  1  0
 22 12  1  0
 23  4  1  0
 24 23  1  0
 25 24  1  0
 26 25  1  0
 26 15  1  0
 27 26  1  0
 27 16  1  0
 28 27  1  0
 28  3  1  0
 29 17  1  0
 29  3  1  0
 29  2  1  0
 30  2  1  0
 31  1  1  0
M  END
$$$$

     RDKit          3D

 33 36  0  0  0  0  0  0  0  0999 V2000
   26.4280   -4.7640   13.2680 C   0  0  0  0  0  0  0  0  0  0  0  0
   24.9650   -4.6470   13.7080 C   0  0  0  0  0  0  0  0  0  0  0  0
   24.2970   -3.3300   13.2900 C   0  0  0  0  0  0  0  0  0  0  0  0
   23.6880   -2.6880   14.1010 O   0  0  0  0  0  0  0  0  0  0  0  0
   24.3880   -2.8530   11.9200 N   0  0  0  0  0  0  0  0  0  0  0  0
   23.8450   -1.6560   11.2020 C   0  0  0  0  0  0  0  0  0  0  0  0
   24.1020   -2.3470    9.9140 C   0  0  1  0  0  0  0  0  0  0  0  0
   24.9810   -3.3200   10.6390 C   0  0  0  0  0  0  0  0  0  0  0  0
   22.9430   -2.9910    9.3040 N   0  0  0  0  0  0  0  0  0  0  0  0
   22.4490   -2.5960    7.9730 C   0  0  0  0  0  0  0  0  0  0  0  0
   22.9460   -1.7040    7.3530 O   0  0  0  0  0  0  0  0  0  0  0  0
   21.2410   -3.3390    7.3830 C   0  0  0  0  0  0  0  0  0  0  0  0
   20.8960   -2.8970    6.0790 O   0  0  0  0  0  0  0  0  0  0  0  0
   20.0630   -1.7600    6.0120 C   0  0  0  0  0  0  0  0  0  0  0  0
   19.6080   -1.1520    7.1800 C   0  0  0  0  0  0  0  0  0  0  0  0
   18.8000   -0.0270    7.1340 C   0  0  0  0  0  0  0  0  0  0  0  0
   18.4480    0.4890    5.8940 C   0  0  0  0  0  0  0  0  0  0  0  0
   17.3240    2.0720    5.8100 Br  0  0  0  0  0  0  0  0  0  0  0  0
   18.8940   -0.1030    4.7210 C   0  0  0  0  0  0  0  0  0  0  0  0
   19.6920   -1.2320    4.7740 C   0  0  1  0  0  0  0  0  0  0  0  0
   20.2030   -1.8480    3.4630 C   0  0  0  0  0  0  0  0  0  0  0  0
   19.5340   -2.5860    2.8170 O   0  0  0  0  0  0  0  0  0  0  0  0
   21.5520   -1.4850    3.0290 N   0  0  0  0  0  0  0  0  0  0  0  0
   22.2890   -1.9120    1.8280 C   0  0  0  0  0  0  0  0  0  0  0  0
   23.3650   -0.8750    1.6700 C   0  0  0  0  0  0  0  0  0  0  0  0
   23.6670   -0.4080    2.8790 C   0  0  2  0  0  0  0  0  0  0  0  0
   22.4470   -0.5770    3.7480 C   0  0  0  0  0  0  0  0  0  0  0  0
   24.8230    0.5160    3.2540 C   0  0  0  0  0  0  0  0  0  0  0  0
   24.8460    1.0760    4.5300 C   0  0  0  0  0  0  0  0  0  0  0  0
   25.8770    1.9100    4.9020 C   0  0  0  0  0  0  0  0  0  0  0  0
   26.8970    2.1840    4.0050 C   0  0  0  0  0  0  0  0  0  0  0  0
   26.8830    1.6340    2.7280 C   0  0  0  0  0  0  0  0  0  0  0  0
   25.8390    0.7980    2.3520 C   0  0  0  0  0  0  0  0  0  0  0  0
  2  1  1  0
  3  2  1  0
  4  3  1  0
  5  3  1  0
  6  5  1  0
  7  6  1  0
  8  7  1  0
  8  5  1  0
  7  9  1  1
 10  9  1  0
 11 10  1  0
 12 10  1  0
 13 12  1  0
 14 13  1  0
 15 14  1  0
 16 15  1  0
 17 16  1  0
 18 17  1  0
 19 17  1  0
 20 19  1  0
 20 14  1  0
 20 21  1  1
 22 21  1  0
 23 21  1  0
 24 23  1  0
 25 24  1  0
 26 25  1  0
 27 23  1  0
 27 26  1  0
 26 28  1  6
 29 28  1  0
 30 29  1  0
 31 30  1  0
 32 31  1  0
 33 32  1  0
 33 28  1  0
M  END
$$$$

     RDKit          3D

 43 48  0  0  0  0  0  0  0  0999 V2000
   23.5450   -2.0870    7.0600 N   0  0  0  0  0  0  0  0  0  0  0  0
   24.0580   -4.3570   10.4390 C   0  0  0  0  0  0  0  0  0  0  0  0
   24.0100   -3.6130    9.1120 C   0  0  0  0  0  0  0  0  0  0  0  0
   23.7330   -3.4030   12.7560 C   0  0  1  0  0  0  0  0  0  0  0  0
   21.6160   -3.0600    9.7610 C   0  0  0  0  0  0  0  0  0  0  0  0
   22.2910   -2.6500   11.0290 C   0  0  1  0  0  0  0  0  0  0  0  0
   22.3820   -1.0660    5.2900 N   0  0  0  0  0  0  0  0  0  0  0  0
   19.9550   -1.3360    4.9740 C   0  0  0  0  0  0  0  0  0  0  0  0
   19.0160   -3.2600    6.2780 C   0  0  0  0  0  0  0  0  0  0  0  0
   16.1980   -2.5500    3.0940 C   0  0  0  0  0  0  0  0  0  0  0  0
   19.9390   -3.0690    7.4730 C   0  0  0  0  0  0  0  0  0  0  0  0
   22.4310   -2.6410    7.5390 C   0  0  0  0  0  0  0  0  0  0  0  0
   21.2020   -2.4230    6.9190 C   0  0  0  0  0  0  0  0  0  0  0  0
   23.5160   -1.3370    5.9610 C   0  0  0  0  0  0  0  0  0  0  0  0
   24.5490   -4.4770   13.4860 C   0  0  2  0  0  0  0  0  0  0  0  0
   17.6500   -1.6950    4.8530 C   0  0  0  0  0  0  0  0  0  0  0  0
   17.3040   -2.7150    3.9480 C   0  0  0  0  0  0  0  0  0  0  0  0
   21.2360   -1.6140    5.7480 C   0  0  0  0  0  0  0  0  0  0  0  0
   18.8030   -1.9140    5.6880 N   0  0  0  0  0  0  0  0  0  0  0  0
   22.5870   -3.4410    8.7350 N   0  0  0  0  0  0  0  0  0  0  0  0
   23.3760   -3.5420   11.4620 N   0  0  0  0  0  0  0  0  0  0  0  0
   23.1940   -2.5110   13.4050 O   0  0  0  0  0  0  0  0  0  0  0  0
   15.4690   -1.3470    3.1440 C   0  0  0  0  0  0  0  0  0  0  0  0
   15.8280   -0.3200    4.0460 C   0  0  0  0  0  0  0  0  0  0  0  0
   16.9260   -0.4770    4.9150 C   0  0  0  0  0  0  0  0  0  0  0  0
   15.0620    0.8560    4.0600 C   0  0  0  0  0  0  0  0  0  0  0  0
   15.3660    1.9130    4.9160 C   0  0  0  0  0  0  0  0  0  0  0  0
   16.4540    1.7830    5.7840 C   0  0  0  0  0  0  0  0  0  0  0  0
   17.2180    0.6060    5.7900 C   0  0  0  0  0  0  0  0  0  0  0  0
   24.7120   -0.8600    5.4940 O   0  0  0  0  0  0  0  0  0  0  0  0
   25.9070   -1.0470    6.2060 C   0  0  0  0  0  0  0  0  0  0  0  0
   27.0910   -0.4370    5.3980 C   0  0  1  0  0  0  0  0  0  0  0  0
   27.0470   -1.0510    4.0160 N   0  0  0  0  0  0  0  0  0  0  0  0
   26.4840   -0.0540    3.0060 C   0  0  0  0  0  0  0  0  0  0  0  0
   26.8500    1.3110    3.5870 C   0  0  0  0  0  0  0  0  0  0  0  0
   26.8850    1.0660    5.0970 C   0  0  0  0  0  0  0  0  0  0  0  0
   28.4690   -1.4190    3.6160 C   0  0  0  0  0  0  0  0  0  0  0  0
   22.8370   -1.2510   10.7770 C   0  0  0  0  0  0  0  0  0  0  0  0
   25.9490   -3.9440   13.8440 C   0  0  0  0  0  0  0  0  0  0  0  0
   21.6390   -0.3900   10.6000 C   0  0  0  0  0  0  0  0  0  0  0  0
   20.7490    0.3490   10.5440 N   0  0  0  0  0  0  0  0  0  0  0  0
   18.5140    0.6080    6.9660 Cl  0  0  0  0  0  0  0  0  0  0  0  0
   24.6220   -5.6200   12.7590 F   0  0  0  0  0  0  0  0  0  0  0  0
  3  2  1  0
  6  5  1  0
 11  9  1  0
 12  1  1  0
 13 11  1  0
 13 12  1  0
 14  7  1  0
 14  1  1  0
 15  4  1  0
 17 10  1  0
 17 16  1  0
 18  8  1  0
 18 13  1  0
 18  7  1  0
 19 16  1  0
 19  8  1  0
 19  9  1  0
 20  5  1  0
 20 12  1  0
 20  3  1  0
 21  2  1  0
 21  6  1  0
 21  4  1  0
  4 22  1  1
 23 10  1  0
 24 23  1  0
 25 24  1  0
 25 16  1  0
 26 24  1  0
 27 26  1  0
 28 27  1  0
 29 25  1  0
 29 28  1  0
 30 14  1  0
 31 30  1  0
 32 31  1  1
 33 32  1  0
 34 33  1  0
 35 34  1  0
 36 35  1  0
 36 32  1  0
 37 33  1  0
  6 38  1  6
 15 39  1  6
 40 38  1  0
 41 40  1  0
 42 29  1  0
 43 15  1  0
M  END
$$$$

     RDKit          3D

 13 14  0  0  0  0  0  0  0  0999 V2000
   24.2420    2.3200    4.7020 C   0  0  0  0  0  0  0  0  0  0  0  0
   23.6460    1.3660    3.9150 C   0  0  0  0  0  0  0  0  0  0  0  0
   24.3580    0.6300    2.9890 C   0  0  0  0  0  0  0  0  0  0  0  0
   25.6060    2.5200    4.6160 C   0  0  0  0  0  0  0  0  0  0  0  0
   26.3500    1.7980    3.7060 C   0  0  0  0  0  0  0  0  0  0  0  0
   25.7180    0.8680    2.8640 C   0  0  2  0  0  0  0  0  0  0  0  0
   29.3940    2.4840    2.1470 C   0  0  0  0  0  0  0  0  0  0  0  0
   26.3860    0.2550    1.8380 O   0  0  0  0  0  0  0  0  0  0  0  0
   27.5390    0.9950    1.4110 C   0  0  0  0  0  0  0  0  0  0  0  0
   28.4090    1.4050    2.5820 C   0  0  2  0  0  0  0  0  0  0  0  0
   27.7020    2.0420    3.6740 O   0  0  0  0  0  0  0  0  0  0  0  0
   21.9440    1.0640    4.1150 Cl  0  0  0  0  0  0  0  0  0  0  0  0
   30.1430    3.0270    3.2740 N   0  0  0  0  0  0  0  0  0  0  0  0
  2  1  1  0
  3  2  1  0
  4  1  1  0
  5  4  1  0
  6  5  1  0
  6  3  1  6
  8  6  1  0
  9  8  1  0
 10  9  1  0
 10  7  1  6
 11  5  1  0
 11 10  1  0
 12  2  1  0
 13  7  1  0
M  END
$$$$

     RDKit          3D

 37 43  0  0  0  0  0  0  0  0999 V2000
   21.4740   -1.7920    5.7320 C   0  0  0  0  0  0  0  0  0  0  0  0
   21.5270   -2.5970    6.8700 C   0  0  0  0  0  0  0  0  0  0  0  0
   22.8030   -2.7830    7.4560 C   0  0  0  0  0  0  0  0  0  0  0  0
   23.8900   -2.2060    6.8920 N   0  0  0  0  0  0  0  0  0  0  0  0
   22.5860   -1.2570    5.2380 N   0  0  0  0  0  0  0  0  0  0  0  0
   23.7800   -1.4480    5.8010 C   0  0  0  0  0  0  0  0  0  0  0  0
   20.3360   -3.1590    7.3970 C   0  0  0  0  0  0  0  0  0  0  0  0
   19.1690   -3.2950    6.4200 C   0  0  0  0  0  0  0  0  0  0  0  0
   20.3110   -1.5030    5.0290 C   0  0  0  0  0  0  0  0  0  0  0  0
   26.1070   -1.1050    5.8070 C   0  0  0  0  0  0  0  0  0  0  0  0
   24.3990   -4.1470    8.6500 C   0  0  0  0  0  0  0  0  0  0  0  0
   25.0920   -3.7410    9.9440 C   0  0  1  0  0  0  0  0  0  0  0  0
   23.1360   -3.0730   10.9730 C   0  0  2  0  0  0  0  0  0  0  0  0
   22.2710   -3.4940    9.8280 C   0  0  0  0  0  0  0  0  0  0  0  0
   17.9710   -1.6950    4.9410 C   0  0  2  0  0  0  0  0  0  0  0  0
   17.5940   -2.5790    3.9360 C   0  0  0  0  0  0  0  0  0  0  0  0
   16.5160   -2.3370    3.1030 C   0  0  0  0  0  0  0  0  0  0  0  0
   15.8260   -1.1600    3.2750 C   0  0  0  0  0  0  0  0  0  0  0  0
   16.1900   -0.2400    4.2450 C   0  0  0  0  0  0  0  0  0  0  0  0
   17.2810   -0.4610    5.1080 C   0  0  0  0  0  0  0  0  0  0  0  0
   15.4130    0.9090    4.3190 C   0  0  0  0  0  0  0  0  0  0  0  0
   15.6970    1.8870    5.2550 C   0  0  0  0  0  0  0  0  0  0  0  0
   16.7720    1.7000    6.1110 C   0  0  0  0  0  0  0  0  0  0  0  0
   17.5550    0.5500    6.0650 C   0  0  0  0  0  0  0  0  0  0  0  0
   18.5800    0.5290    7.0130 C   0  0  0  0  0  0  0  0  0  0  0  0
   27.1600   -0.5160    4.8750 C   0  0  2  0  0  0  0  0  0  0  0  0
   26.5880    0.1380    2.6950 C   0  0  0  0  0  0  0  0  0  0  0  0
   27.3510    1.2690    3.3450 C   0  0  0  0  0  0  0  0  0  0  0  0
   26.9250    0.9980    4.7560 C   0  0  0  0  0  0  0  0  0  0  0  0
   28.3600   -1.4400    3.0260 C   0  0  0  0  0  0  0  0  0  0  0  0
   23.8240   -1.7600   10.5820 C   0  0  0  0  0  0  0  0  0  0  0  0
   25.2100   -2.2250   10.0360 C   0  0  0  0  0  0  0  0  0  0  0  0
   23.0750   -3.4980    8.5680 N   0  0  0  0  0  0  0  0  0  0  0  0
   19.0760   -2.1090    5.5650 N   0  0  0  0  0  0  0  0  0  0  0  0
   24.2800   -3.9970   11.1480 N   0  0  0  0  0  0  0  0  0  0  0  0
   27.0250   -1.0310    3.4970 N   0  0  0  0  0  0  0  0  0  0  0  0
   24.8420   -0.8390    5.2110 O   0  0  0  0  0  0  0  0  0  0  0  0
  2  1  1  0
  3  2  1  0
  4  3  1  0
  5  1  1  0
  6  5  1  0
  6  4  1  0
  7  2  1  0
  8  7  1  0
  9  1  1  0
 12 11  1  6
 13 14  1  6
 16 15  1  0
 17 16  1  0
 18 17  1  0
 19 18  1  0
 20 19  1  0
 20 15  1  0
 21 19  1  0
 22 21  1  0
 23 22  1  0
 24 20  1  0
 24 23  1  0
 25 24  1  0
 26 10  1  1
 28 27  1  0
 29 26  1  0
 29 28  1  0
 31 13  1  0
 32 31  1  0
 32 12  1  0
 33 14  1  0
 33 11  1  0
 33  3  1  0
 15 34  1  6
 34  9  1  0
 34  8  1  0
 35 12  1  0
 35 13  1  0
 36 27  1  0
 36 26  1  0
 36 30  1  0
 37 10  1  0
 37  6  1  0
M  END
$$$$

     RDKit          3D

 47 54  0  0  0  0  0  0  0  0999 V2000
   18.3100   -2.6210    4.2910 C   0  0  0  0  0  0  0  0  0  0  0  0
   17.4030    1.4730    6.1520 C   0  0  0  0  0  0  0  0  0  0  0  0
   16.2400    2.0640    5.6580 C   0  0  0  0  0  0  0  0  0  0  0  0
   20.2490   -1.9100    7.6930 C   0  0  0  0  0  0  0  0  0  0  0  0
   17.2430   -1.7110    4.0290 C   0  0  0  0  0  0  0  0  0  0  0  0
   21.4790   -1.6060    7.0740 C   0  0  0  0  0  0  0  0  0  0  0  0
   17.0680   -0.4360    4.6760 C   0  0  0  0  0  0  0  0  0  0  0  0
   17.8290    0.2220    5.6790 C   0  0  0  0  0  0  0  0  0  0  0  0
   19.0560   -0.3980    6.2060 C   0  0  0  0  0  0  0  0  0  0  0  0
   19.0680   -1.3000    7.2740 C   0  0  0  0  0  0  0  0  0  0  0  0
   21.4690   -0.6990    5.9930 C   0  0  0  0  0  0  0  0  0  0  0  0
   15.4880    1.4170    4.6860 C   0  0  0  0  0  0  0  0  0  0  0  0
   20.2720   -0.1240    5.5860 C   0  0  0  0  0  0  0  0  0  0  0  0
   15.9030    0.1740    4.1870 C   0  0  0  0  0  0  0  0  0  0  0  0
   22.7410   -2.1210    7.4170 C   0  0  2  0  0  0  0  0  0  0  0  0
   16.2600   -2.0020    3.1080 C   0  0  0  0  0  0  0  0  0  0  0  0
   23.7300   -0.9220    5.7340 C   0  0  0  0  0  0  0  0  0  0  0  0
   28.7620   -2.0050    4.0940 C   0  0  0  0  0  0  0  0  0  0  0  0
   25.3310   -2.1650    9.8760 C   0  0  0  0  0  0  0  0  0  0  0  0
   24.1410   -1.6460   10.6930 C   0  0  0  0  0  0  0  0  0  0  0  0
   28.5230   -0.7900    4.9840 C   0  0  0  0  0  0  0  0  0  0  0  0
   26.9620    1.2020    4.4420 C   0  0  0  0  0  0  0  0  0  0  0  0
   24.1990   -3.8970    8.3940 C   0  0  0  0  0  0  0  0  0  0  0  0
   22.2360   -2.9970    9.7240 C   0  0  0  0  0  0  0  0  0  0  0  0
   28.1310   -1.6240    2.7750 C   0  0  0  0  0  0  0  0  0  0  0  0
   26.4810    0.2810    2.2880 C   0  0  0  0  0  0  0  0  0  0  0  0
   25.0510   -3.6500    9.6510 C   0  0  2  0  0  0  0  0  0  0  0  0
   23.2330   -2.8530   10.8910 C   0  0  1  0  0  0  0  0  0  0  0  0
   27.0950    1.4920    2.9570 C   0  0  2  0  0  0  0  0  0  0  0  0
   27.1130   -0.3180    4.5920 C   0  0  2  0  0  0  0  0  0  0  0  0
   26.0940   -0.9130    5.5320 C   0  0  0  0  0  0  0  0  0  0  0  0
   17.8100   -1.6230    7.9890 C   0  0  1  0  0  0  0  0  0  0  0  0
   19.1880   -3.3500    4.4920 N   0  0  0  0  0  0  0  0  0  0  0  0
   22.5890   -0.3580    5.3230 N   0  0  0  0  0  0  0  0  0  0  0  0
   23.8630   -1.7810    6.7420 N   0  0  0  0  0  0  0  0  0  0  0  0
   22.9480   -3.0880    8.4400 N   0  0  0  0  0  0  0  0  0  0  0  0
   16.1610   -3.1310    2.3970 N   0  0  0  0  0  0  0  0  0  0  0  0
   24.1840   -4.0250   10.8080 N   0  0  0  0  0  0  0  0  0  0  0  0
   26.8610   -0.8820    3.1770 N   0  0  0  0  0  0  0  0  0  0  0  0
   24.8300   -0.5080    5.0060 O   0  0  0  0  0  0  0  0  0  0  0  0
   14.3750    1.9960    4.1840 F   0  0  0  0  0  0  0  0  0  0  0  0
   20.2870    0.7080    4.5250 F   0  0  0  0  0  0  0  0  0  0  0  0
   28.4260    1.5590    2.6110 F   0  0  0  0  0  0  0  0  0  0  0  0
   18.0110   -2.4200    9.0720 F   0  0  0  0  0  0  0  0  0  0  0  0
   17.1990   -0.5140    8.4860 F   0  0  0  0  0  0  0  0  0  0  0  0
   16.8850   -2.2460    7.2290 F   0  0  0  0  0  0  0  0  0  0  0  0
   15.1040   -0.7480    2.9640 S   0  0  0  0  0  0  0  0  0  0  0  0
  3  2  1  0
  5  1  1  0
  6  4  1  0
  7  5  1  0
  8  7  1  0
  8  2  1  0
  9  8  1  0
 10  9  1  0
 10  4  1  0
 11  6  1  0
 12  3  1  0
 13 11  1  0
 13  9  1  0
 14 12  1  0
 14  7  1  0
 15  6  1  0
 16  5  1  0
 20 19  1  0
 21 18  1  0
 25 18  1  0
 27 23  1  6
 27 19  1  0
 28 24  1  6
 28 20  1  0
 29 26  1  0
 29 22  1  0
 30 22  1  0
 30 21  1  0
 30 31  1  1
 32 10  1  0
 33  1  1  0
 34 11  1  0
 34 17  1  0
 35 17  1  0
 35 15  1  0
 36 24  1  0
 36 23  1  0
 15 36  1  6
 37 16  1  0
 38 28  1  0
 38 27  1  0
 39 30  1  0
 39 26  1  0
 39 25  1  0
 40 31  1  0
 40 17  1  0
 41 12  1  0
 42 13  1  0
 29 43  1  6
 32 44  1  1
 45 32  1  0
 46 32  1  0
 47 16  1  0
 47 14  1  0
M  END
$$$$

     RDKit          3D

 38 43  0  0  0  0  0  0  0  0999 V2000
   18.1650   -1.8090    5.2770 C   0  0  0  0  0  0  0  0  0  0  0  0
   24.1450   -1.8680    7.3780 N   0  0  0  0  0  0  0  0  0  0  0  0
   22.6470   -2.5410   11.6280 C   0  0  0  0  0  0  0  0  0  0  0  0
   22.7080   -1.9330   10.2640 C   0  0  0  0  0  0  0  0  0  0  0  0
   24.5880   -3.3530    9.6210 C   0  0  0  0  0  0  0  0  0  0  0  0
   24.5340   -3.9890   11.0150 C   0  0  0  0  0  0  0  0  0  0  0  0
   22.8870   -1.1840    5.5250 N   0  0  0  0  0  0  0  0  0  0  0  0
   20.5140   -1.5610    5.2670 C   0  0  0  0  0  0  0  0  0  0  0  0
   19.5860   -3.0950    6.8050 C   0  0  0  0  0  0  0  0  0  0  0  0
   16.3110   -0.5160    4.4190 C   0  0  0  0  0  0  0  0  0  0  0  0
   20.5610   -2.8600    7.9540 C   0  0  0  0  0  0  0  0  0  0  0  0
   23.0650   -2.3840    7.9830 C   0  0  0  0  0  0  0  0  0  0  0  0
   21.8230   -2.3130    7.3320 C   0  0  2  0  0  0  0  0  0  0  0  0
   24.0480   -1.3140    6.1450 C   0  0  0  0  0  0  0  0  0  0  0  0
   17.6430   -2.9570    4.6560 C   0  0  0  0  0  0  0  0  0  0  0  0
   16.4460   -2.9120    3.9080 C   0  0  0  0  0  0  0  0  0  0  0  0
   15.7890   -1.6770    3.7950 C   0  0  0  0  0  0  0  0  0  0  0  0
   21.7690   -1.6510    6.0940 C   0  0  1  0  0  0  0  0  0  0  0  0
   19.3590   -1.8930    6.0210 N   0  0  0  0  0  0  0  0  0  0  0  0
   25.1270   -0.8090    5.5130 O   0  0  0  0  0  0  0  0  0  0  0  0
   23.1940   -2.9370    9.2750 N   0  0  0  0  0  0  0  0  0  0  0  0
   23.9100   -3.1080   12.0670 N   0  0  0  0  0  0  0  0  0  0  0  0
   17.4970   -0.5830    5.1760 C   0  0  0  0  0  0  0  0  0  0  0  0
   15.5720    0.6890    4.2820 C   0  0  0  0  0  0  0  0  0  0  0  0
   16.0600    1.8450    4.8940 C   0  0  0  0  0  0  0  0  0  0  0  0
   17.2750    1.7450    5.6340 C   0  0  0  0  0  0  0  0  0  0  0  0
   18.0270    0.5690    5.8180 C   0  0  0  0  0  0  0  0  0  0  0  0
   26.4230   -1.2250    6.0280 C   0  0  0  0  0  0  0  0  0  0  0  0
   24.1570   -3.2580   13.4230 C   0  0  2  0  0  0  0  0  0  0  0  0
   24.9850   -4.3870   13.8530 C   0  0  0  0  0  0  0  0  0  0  0  0
   23.4940   -2.5180   14.1960 O   0  0  0  0  0  0  0  0  0  0  0  0
   26.3120   -4.1340   14.3310 C   0  0  0  0  0  0  0  0  0  0  0  0
   27.5340   -0.5040    5.2530 C   0  0  1  0  0  0  0  0  0  0  0  0
   27.5220   -0.9840    3.8610 N   0  0  0  0  0  0  0  0  0  0  0  0
   27.2820    0.1470    2.9290 C   0  0  0  0  0  0  0  0  0  0  0  0
   27.5660    1.4020    3.7410 C   0  0  0  0  0  0  0  0  0  0  0  0
   27.1120    0.9890    5.1380 C   0  0  0  0  0  0  0  0  0  0  0  0
   28.7510   -1.7980    3.4620 C   0  0  0  0  0  0  0  0  0  0  0  0
  4  3  1  0
  6  5  1  0
 11  9  1  0
 12  2  1  0
 13 11  1  1
 13 12  1  0
 14  7  1  0
 14  2  1  0
 15  1  1  0
 16 15  1  0
 17 10  1  0
 17 16  1  0
 18  8  1  6
 18 13  1  0
 18  7  1  0
 19  8  1  0
 19  1  1  0
 19  9  1  0
 20 14  1  0
 21 12  1  0
 21  5  1  0
 21  4  1  0
 22  6  1  0
 22  3  1  0
 23 10  1  0
 23  1  1  0
 24 10  1  0
 25 24  1  0
 26 25  1  0
 27 23  1  0
 27 26  1  0
 28 20  1  0
 29 22  1  0
 30 29  1  0
 29 31  1  1
 32 30  1  0
 33 28  1  1
 34 33  1  0
 35 34  1  0
 36 35  1  0
 37 36  1  0
 37 33  1  0
 38 34  1  0
M  END
$$$$

     RDKit          3D

 27 29  0  0  0  0  0  0  0  0999 V2000
   23.6000   -2.3760   14.4650 O   0  0  0  0  0  0  0  0  0  0  0  0
   16.2720   -2.5280    3.6440 C   0  0  2  0  0  0  0  0  0  0  0  0
   23.2910   -2.8210   12.2800 N   0  0  0  0  0  0  0  0  0  0  0  0
   19.3160   -3.7100    5.5050 C   0  0  0  0  0  0  0  0  0  0  0  0
   18.9800   -3.7280    6.9940 C   0  0  0  0  0  0  0  0  0  0  0  0
   19.4600   -2.8550    9.2320 C   0  0  0  0  0  0  0  0  0  0  0  0
   20.7180   -3.0100   10.0900 C   0  0  0  0  0  0  0  0  0  0  0  0
   23.6710   -3.2980   10.9510 C   0  0  0  0  0  0  0  0  0  0  0  0
   24.4960   -4.4390   13.7130 C   0  0  0  0  0  0  0  0  0  0  0  0
   25.9350   -4.0820   14.0910 C   0  0  0  0  0  0  0  0  0  0  0  0
   22.7210   -1.5510   11.8110 C   0  0  0  0  0  0  0  0  0  0  0  0
   22.1550   -2.3370    8.1850 C   0  0  0  0  0  0  0  0  0  0  0  0
   17.7370   -1.4100    5.2750 C   0  0  0  0  0  0  0  0  0  0  0  0
   17.0480   -0.2450    5.0710 C   0  0  0  0  0  0  0  0  0  0  0  0
   17.6390    1.1930    5.9560 Cl  0  0  0  0  0  0  0  0  0  0  0  0
   15.9390   -0.2420    4.1500 C   0  0  1  0  0  0  0  0  0  0  0  0
   15.1200    1.2970    3.9840 Cl  0  0  0  0  0  0  0  0  0  0  0  0
   17.3970   -2.5700    4.5810 C   0  0  0  0  0  0  0  0  0  0  0  0
   15.9390   -3.6180    2.9100 O   0  0  0  0  0  0  0  0  0  0  0  0
   15.5940   -1.3360    3.4130 C   0  0  0  0  0  0  0  0  0  0  0  0
   18.0660   -3.7330    4.7490 N   0  0  0  0  0  0  0  0  0  0  0  0
   18.0300   -4.3580    7.4480 O   0  0  0  0  0  0  0  0  0  0  0  0
   19.7990   -3.0410    7.7940 N   0  0  0  0  0  0  0  0  0  0  0  0
   20.9370   -2.2710    7.2720 C   0  0  0  0  0  0  0  0  0  0  0  0
   21.8470   -2.1940    9.5990 N   0  0  0  0  0  0  0  0  0  0  0  0
   23.0560   -1.9610   10.4190 C   0  0  2  0  0  0  0  0  0  0  0  0
   23.7420   -3.1520   13.5120 C   0  0  1  0  0  0  0  0  0  0  0  0
  5  4  1  0
  7  6  1  0
  8  3  1  0
 10  9  1  0
 11  3  1  0
 14 13  1  0
 15 14  1  0
 16 14  1  0
 16 17  1  6
 18  2  1  0
 18 13  1  0
  2 19  1  6
 20 16  1  0
 20  2  1  0
 21 18  1  0
 21  4  1  0
 22  5  1  0
 23  6  1  0
 23  5  1  0
 24 23  1  0
 24 12  1  0
 25  7  1  0
 25 12  1  0
 26 25  1  6
 26 11  1  0
 26  8  1  0
 27  9  1  0
 27  3  1  0
 27  1  1  6
M  END
$$$$

     RDKit          3D

 36 40  0  0  0  0  0  0  0  0999 V2000
   26.1120   -4.0230   15.6270 C   0  0  0  0  0  0  0  0  0  0  0  0
   24.9830   -4.4890   14.7090 C   0  0  0  0  0  0  0  0  0  0  0  0
   24.2090   -3.3280   14.0570 C   0  0  0  0  0  0  0  0  0  0  0  0
   23.5030   -2.6170   14.6940 O   0  0  0  0  0  0  0  0  0  0  0  0
   24.3320   -3.0910   12.6300 N   0  0  0  0  0  0  0  0  0  0  0  0
   23.7560   -2.0980   11.6790 C   0  0  0  0  0  0  0  0  0  0  0  0
   24.6320   -2.6280   10.6040 C   0  0  1  0  0  0  0  0  0  0  0  0
   25.0830   -3.7220   11.5040 C   0  0  0  0  0  0  0  0  0  0  0  0
   23.8740   -3.1690    9.4750 N   0  0  0  0  0  0  0  0  0  0  0  0
   22.8560   -2.3890    8.7600 C   0  0  0  0  0  0  0  0  0  0  0  0
   22.5990   -1.2730    9.0670 O   0  0  0  0  0  0  0  0  0  0  0  0
   22.1290   -3.0690    7.5930 C   0  0  0  0  0  0  0  0  0  0  0  0
   21.3060   -2.1130    6.8570 N   0  0  0  0  0  0  0  0  0  0  0  0
   21.7140   -1.4580    5.7810 C   0  0  0  0  0  0  0  0  0  0  0  0
   20.6800   -0.6300    5.3390 C   0  0  0  0  0  0  0  0  0  0  0  0
   20.7310    0.3030    4.0980 C   0  0  0  0  0  0  0  0  0  0  0  0
   19.7160    0.6050    3.5620 O   0  0  0  0  0  0  0  0  0  0  0  0
   22.0020    0.7940    3.5620 N   0  0  0  0  0  0  0  0  0  0  0  0
   23.2950    0.4350    4.1960 C   0  0  0  0  0  0  0  0  0  0  0  0
   24.5080    1.2610    3.8160 C   0  0  0  0  0  0  0  0  0  0  0  0
   24.5680    1.5190    2.3190 C   0  0  0  0  0  0  0  0  0  0  0  0
   25.8340    1.5690    1.6580 C   0  0  0  0  0  0  0  0  0  0  0  0
   27.0060    1.3600    2.4160 O   0  0  0  0  0  0  0  0  0  0  0  0
   28.2220    1.8000    1.8720 C   0  0  0  0  0  0  0  0  0  0  0  0
   25.8660    1.8120    0.2830 C   0  0  0  0  0  0  0  0  0  0  0  0
   24.6820    2.0110   -0.4340 C   0  0  0  0  0  0  0  0  0  0  0  0
   23.4480    1.9630    0.2180 C   0  0  0  0  0  0  0  0  0  0  0  0
   23.4150    1.7110    1.6260 C   0  0  0  0  0  0  0  0  0  0  0  0
   22.0370    1.6680    2.3580 C   0  0  0  0  0  0  0  0  0  0  0  0
   19.5880   -0.8460    6.2340 C   0  0  0  0  0  0  0  0  0  0  0  0
   18.2740   -0.3270    6.3360 C   0  0  0  0  0  0  0  0  0  0  0  0
   17.4270   -0.7530    7.3690 C   0  0  0  0  0  0  0  0  0  0  0  0
   15.6270   -0.0410    7.4980 Br  0  0  0  0  0  0  0  0  0  0  0  0
   17.8700   -1.6930    8.3120 C   0  0  0  0  0  0  0  0  0  0  0  0
   19.1620   -2.2050    8.2170 C   0  0  0  0  0  0  0  0  0  0  0  0
   20.0240   -1.7730    7.1650 C   0  0  0  0  0  0  0  0  0  0  0  0
  2  1  1  0
  3  2  1  0
  4  3  1  0
  5  3  1  0
  6  5  1  0
  7  6  1  0
  8  7  1  0
  8  5  1  0
  7  9  1  6
 10  9  1  0
 11 10  1  0
 12 10  1  0
 13 12  1  0
 14 13  1  0
 15 14  1  0
 16 15  1  0
 17 16  1  0
 18 16  1  0
 19 18  1  0
 20 19  1  0
 21 20  1  0
 22 21  1  0
 23 22  1  0
 24 23  1  0
 25 22  1  0
 26 25  1  0
 27 26  1  0
 28 27  1  0
 28 21  1  0
 29 28  1  0
 29 18  1  0
 30 15  1  0
 31 30  1  0
 32 31  1  0
 33 32  1  0
 34 32  1  0
 35 34  1  0
 36 35  1  0
 36 30  1  0
 36 13  1  0
M  END
$$$$

     RDKit          3D

 32 36  0  0  0  0  0  0  0  0999 V2000
   18.0470   -0.0180    6.1120 C   0  0  2  0  0  0  0  0  0  0  0  0
   16.1870    0.1310    4.4340 C   0  0  0  0  0  0  0  0  0  0  0  0
   17.2250   -0.5780    4.9440 C   0  0  0  0  0  0  0  0  0  0  0  0
   17.3690   -1.8400    4.2990 C   0  0  0  0  0  0  0  0  0  0  0  0
   16.4470   -2.0410    3.2770 C   0  0  0  0  0  0  0  0  0  0  0  0
   19.5080   -0.1010    5.6890 C   0  0  0  0  0  0  0  0  0  0  0  0
   21.3750    0.2510    4.5620 N   0  0  0  0  0  0  0  0  0  0  0  0
   21.5470   -0.5540    5.5800 C   0  0  0  0  0  0  0  0  0  0  0  0
   24.1160   -2.6340    7.3090 C   0  0  0  0  0  0  0  0  0  0  0  0
   22.8720   -2.1580    6.9490 C   0  0  0  0  0  0  0  0  0  0  0  0
   18.3760   -2.8090    4.6010 C   0  0  0  0  0  0  0  0  0  0  0  0
   26.3790    0.4530    4.2070 C   0  0  2  0  0  0  0  0  0  0  0  0
   15.7530    1.4990    4.8730 C   0  0  0  0  0  0  0  0  0  0  0  0
   22.8390   -1.1700    5.9740 C   0  0  2  0  0  0  0  0  0  0  0  0
   25.1260   -1.2090    5.8480 C   0  0  0  0  0  0  0  0  0  0  0  0
   16.2140    1.7700    6.3000 C   0  0  0  0  0  0  0  0  0  0  0  0
   17.8480   -0.9450    7.3300 C   0  0  0  0  0  0  0  0  0  0  0  0
   27.5310    0.2200    3.1670 C   0  0  0  0  0  0  0  0  0  0  0  0
   28.7160   -1.9380    3.6250 C   0  0  0  0  0  0  0  0  0  0  0  0
   17.6960    1.4500    6.4910 C   0  0  0  0  0  0  0  0  0  0  0  0
   28.2510   -2.3500    5.0110 C   0  0  0  0  0  0  0  0  0  0  0  0
   27.6680   -1.1860    5.8130 C   0  0  0  0  0  0  0  0  0  0  0  0
   26.4090    1.8670    4.7640 C   0  0  0  0  0  0  0  0  0  0  0  0
   20.4030   -0.7770    6.3050 N   0  0  0  0  0  0  0  0  0  0  0  0
   16.2980   -3.1160    2.4860 N   0  0  0  0  0  0  0  0  0  0  0  0
   23.9540   -0.6500    5.4310 N   0  0  0  0  0  0  0  0  0  0  0  0
   25.2630   -2.2030    6.7600 N   0  0  0  0  0  0  0  0  0  0  0  0
   19.2080   -3.5490    4.8590 N   0  0  0  0  0  0  0  0  0  0  0  0
   26.4000   -0.6700    5.2750 N   0  0  0  0  0  0  0  0  0  0  0  0
   27.6780   -1.2270    2.8210 N   0  0  0  0  0  0  0  0  0  0  0  0
   19.9740    0.5700    4.6330 O   0  0  0  0  0  0  0  0  0  0  0  0
   15.3830   -0.6790    3.1350 S   0  0  0  0  0  0  0  0  0  0  0  0
  3  2  1  0
  3  1  1  0
  4  3  1  0
  5  4  1  0
  6  1  1  0
  8  7  1  0
 10  9  1  0
 11  4  1  0
 13  2  1  0
 14  8  1  1
 14 10  1  0
 16 13  1  0
  1 17  1  1
 18 12  1  0
 20 16  1  0
 20  1  1  0
 21 19  1  0
 22 21  1  0
 12 23  1  1
 24  8  1  0
 24  6  1  0
 25  5  1  0
 26 15  1  0
 26 14  1  0
 27 15  1  0
 27  9  1  0
 28 11  1  0
 29 12  1  0
 29 15  1  0
 29 22  1  0
 30 19  1  0
 30 18  1  0
 31  7  1  0
 31  6  1  0
 32  2  1  0
 32  5  1  0
M  END
$$$$

     RDKit          3D

 24 25  0  0  0  0  0  0  0  0999 V2000
   14.9520   -0.3460    8.1420 Cl  0  0  0  0  0  0  0  0  0  0  0  0
   18.4250    2.8550    5.7640 Cl  0  0  0  0  0  0  0  0  0  0  0  0
   16.5780    0.1420    7.8630 C   0  0  0  0  0  0  0  0  0  0  0  0
   17.6030   -0.5340    8.5060 C   0  0  0  0  0  0  0  0  0  0  0  0
   18.9240   -0.1410    8.2770 C   0  0  0  0  0  0  0  0  0  0  0  0
   19.2050    0.9340    7.4230 C   0  0  0  0  0  0  0  0  0  0  0  0
   20.4950    1.3340    7.1910 O   0  0  0  0  0  0  0  0  0  0  0  0
   21.5600    0.9080    8.0070 C   0  0  0  0  0  0  0  0  0  0  0  0
   22.0980   -0.4150    7.4670 C   0  0  0  0  0  0  0  0  0  0  0  0
   23.2030   -1.0170    8.1100 N   0  0  0  0  0  0  0  0  0  0  0  0
   23.8900   -0.3990    9.2730 C   0  0  0  0  0  0  0  0  0  0  0  0
   23.8070   -1.3150   10.4870 C   0  0  0  0  0  0  0  0  0  0  0  0
   24.3460   -2.7300   10.2450 C   0  0  1  0  0  0  0  0  0  0  0  0
   24.0880   -3.6050   11.4330 C   0  0  0  0  0  0  0  0  0  0  0  0
   25.1370   -4.3840   11.8920 N   0  0  0  0  0  0  0  0  0  0  0  0
   24.9640   -5.2890   13.0310 C   0  0  0  0  0  0  0  0  0  0  0  0
   26.2380   -5.4140   13.8640 C   0  0  0  0  0  0  0  0  0  0  0  0
   26.3110   -3.9800   14.9840 S   0  0  0  0  0  0  0  0  0  0  0  0
   23.0010   -3.6390   12.0050 O   0  0  0  0  0  0  0  0  0  0  0  0
   23.7250   -3.2650    8.9460 C   0  0  0  0  0  0  0  0  0  0  0  0
   23.8230   -2.2920    7.7560 C   0  0  0  0  0  0  0  0  0  0  0  0
   21.5690   -0.9680    6.5180 O   0  0  0  0  0  0  0  0  0  0  0  0
   18.1400    1.5570    6.7990 C   0  0  0  0  0  0  0  0  0  0  0  0
   16.8230    1.1850    7.0060 C   0  0  0  0  0  0  0  0  0  0  0  0
  3  1  1  0
  4  3  1  0
  5  4  1  0
  6  5  1  0
  7  6  1  0
  8  7  1  0
  9  8  1  0
 10  9  1  0
 11 10  1  0
 12 11  1  0
 13 12  1  0
 13 14  1  1
 15 14  1  0
 16 15  1  0
 17 16  1  0
 18 17  1  0
 19 14  1  0
 20 13  1  0
 21 20  1  0
 21 10  1  0
 22  9  1  0
 23  6  1  0
 23  2  1  0
 24 23  1  0
 24  3  1  0
M  END
$$$$

     RDKit          3D

 33 37  0  0  0  0  0  0  0  0999 V2000
   27.6760    0.8610    2.1980 C   0  0  0  0  0  0  0  0  0  0  0  0
   27.1590   -0.1050    1.1800 C   0  0  0  0  0  0  0  0  0  0  0  0
   27.8790   -1.3330    1.5790 C   0  0  0  0  0  0  0  0  0  0  0  0
   26.3730    0.3710    4.3540 C   0  0  2  0  0  0  0  0  0  0  0  0
   24.0390   -0.4890    5.4040 N   0  0  0  0  0  0  0  0  0  0  0  0
   25.1500   -1.0240    5.8910 C   0  0  0  0  0  0  0  0  0  0  0  0
   15.7260    1.6230    4.9200 C   0  0  0  0  0  0  0  0  0  0  0  0
   17.7520    1.5700    6.3620 C   0  0  0  0  0  0  0  0  0  0  0  0
   17.1970   -0.4460    4.9890 C   0  0  0  0  0  0  0  0  0  0  0  0
   17.3130   -1.7300    4.3980 C   0  0  0  0  0  0  0  0  0  0  0  0
   16.3530   -1.9840    3.4200 C   0  0  0  0  0  0  0  0  0  0  0  0
   17.8930   -0.7570    7.3570 C   0  0  0  0  0  0  0  0  0  0  0  0
   21.5770   -0.3750    5.5780 C   0  0  0  0  0  0  0  0  0  0  0  0
   28.8840   -2.1230    3.7280 C   0  0  0  0  0  0  0  0  0  0  0  0
   22.8960   -0.9090    5.9560 C   0  0  2  0  0  0  0  0  0  0  0  0
   25.1830   -1.9610    6.9290 C   0  0  0  0  0  0  0  0  0  0  0  0
   16.2580    1.8690    6.3190 C   0  0  0  0  0  0  0  0  0  0  0  0
   18.0950    0.0830    6.0860 C   0  0  2  0  0  0  0  0  0  0  0  0
   16.1460    0.2550    4.4840 C   0  0  0  0  0  0  0  0  0  0  0  0
   19.5470    0.0100    5.6850 C   0  0  0  0  0  0  0  0  0  0  0  0
   27.6290    0.0950    3.5240 C   0  0  1  0  0  0  0  0  0  0  0  0
   18.3120   -2.7070    4.6990 C   0  0  0  0  0  0  0  0  0  0  0  0
   26.3740    1.7400    4.9960 C   0  0  0  0  0  0  0  0  0  0  0  0
   23.9470   -2.3040    7.4290 C   0  0  0  0  0  0  0  0  0  0  0  0
   22.7930   -1.7910    6.9800 N   0  0  0  0  0  0  0  0  0  0  0  0
   27.7840   -1.3490    3.0740 N   0  0  1  0  0  0  0  0  0  0  0  0
   21.3840    0.4170    4.5610 N   0  0  0  0  0  0  0  0  0  0  0  0
   20.4540   -0.6480    6.3100 N   0  0  0  0  0  0  0  0  0  0  0  0
   16.2070   -3.0930    2.6710 N   0  0  0  0  0  0  0  0  0  0  0  0
   19.1060   -3.5060    4.8850 N   0  0  0  0  0  0  0  0  0  0  0  0
   19.9790    0.6900    4.6200 O   0  0  0  0  0  0  0  0  0  0  0  0
   26.3510   -0.6580    5.3840 O   0  0  0  0  0  0  0  0  0  0  0  0
   15.3000   -0.6260    3.2460 S   0  0  0  0  0  0  0  0  0  0  0  0
  2  1  1  0
  3  2  1  0
  6  5  1  0
 10  9  1  0
 11 10  1  0
 15 13  1  1
 15  5  1  0
 16  6  1  0
 17  7  1  0
 17  8  1  0
 18  9  1  0
 18 12  1  1
 18  8  1  0
 19  7  1  0
 19  9  1  0
 20 18  1  0
 21  4  1  0
 21  1  1  6
 22 10  1  0
  4 23  1  1
 24 16  1  0
 25 24  1  0
 25 15  1  0
 26 21  1  0
 26 14  1  1
 26  3  1  0
 27 13  1  0
 28 20  1  0
 28 13  1  0
 29 11  1  0
 30 22  1  0
 31 27  1  0
 31 20  1  0
 32  4  1  0
 32  6  1  0
 33 19  1  0
 33 11  1  0
M  CHG  1  26   1
M  END
$$$$

     RDKit          3D

 47 54  0  0  0  0  0  0  0  0999 V2000
   18.2670   -2.6240    4.2960 C   0  0  0  0  0  0  0  0  0  0  0  0
   17.3570    1.4520    6.1740 C   0  0  0  0  0  0  0  0  0  0  0  0
   16.1940    2.0470    5.6920 C   0  0  0  0  0  0  0  0  0  0  0  0
   20.2160   -1.9130    7.6960 C   0  0  0  0  0  0  0  0  0  0  0  0
   17.2130   -1.7030    4.0320 C   0  0  0  0  0  0  0  0  0  0  0  0
   21.4350   -1.5970    7.0690 C   0  0  0  0  0  0  0  0  0  0  0  0
   17.0170   -0.4320    4.6740 C   0  0  0  0  0  0  0  0  0  0  0  0
   17.7700    0.2050    5.6880 C   0  0  0  0  0  0  0  0  0  0  0  0
   19.0000   -0.4150    6.2210 C   0  0  1  0  0  0  0  0  0  0  0  0
   19.0280   -1.3160    7.2840 C   0  0  0  0  0  0  0  0  0  0  0  0
   21.4200   -0.6940    5.9830 C   0  0  0  0  0  0  0  0  0  0  0  0
   15.4460    1.4260    4.7020 C   0  0  0  0  0  0  0  0  0  0  0  0
   20.2100   -0.1340    5.5910 C   0  0  0  0  0  0  0  0  0  0  0  0
   15.8580    0.1880    4.1840 C   0  0  0  0  0  0  0  0  0  0  0  0
   22.6900   -2.1200    7.4160 C   0  0  0  0  0  0  0  0  0  0  0  0
   16.2250   -1.9980    3.1200 C   0  0  0  0  0  0  0  0  0  0  0  0
   23.6830   -0.9320    5.7210 C   0  0  0  0  0  0  0  0  0  0  0  0
   28.7530   -1.9900    4.1400 C   0  0  0  0  0  0  0  0  0  0  0  0
   25.3000   -2.1720    9.8990 C   0  0  0  0  0  0  0  0  0  0  0  0
   24.0920   -1.6670   10.6960 C   0  0  0  0  0  0  0  0  0  0  0  0
   28.4770   -0.7840    5.0240 C   0  0  0  0  0  0  0  0  0  0  0  0
   26.9040    1.1910    4.4320 C   0  0  0  0  0  0  0  0  0  0  0  0
   24.1500   -3.8970    8.3980 C   0  0  0  0  0  0  0  0  0  0  0  0
   22.1910   -3.0190    9.7260 C   0  0  0  0  0  0  0  0  0  0  0  0
   28.1070   -1.6450    2.8190 C   0  0  0  0  0  0  0  0  0  0  0  0
   26.4610    0.2620    2.2710 C   0  0  0  0  0  0  0  0  0  0  0  0
   25.0160   -3.6510    9.6490 C   0  0  2  0  0  0  0  0  0  0  0  0
   23.1840   -2.8760   10.8910 C   0  0  1  0  0  0  0  0  0  0  0  0
   27.0300    1.4850    2.9480 C   0  0  2  0  0  0  0  0  0  0  0  0
   27.0700   -0.3240    4.6020 C   0  0  2  0  0  0  0  0  0  0  0  0
   26.0510   -0.9170    5.5440 C   0  0  0  0  0  0  0  0  0  0  0  0
   17.7760   -1.6470    7.9920 C   0  0  1  0  0  0  0  0  0  0  0  0
   19.1420   -3.3620    4.4780 N   0  0  0  0  0  0  0  0  0  0  0  0
   22.5390   -0.3720    5.2970 N   0  0  0  0  0  0  0  0  0  0  0  0
   23.8060   -1.7810    6.7390 N   0  0  0  0  0  0  0  0  0  0  0  0
   22.9140   -3.0820    8.4530 N   0  0  0  0  0  0  0  0  0  0  0  0
   16.1240   -3.1200    2.3950 N   0  0  0  0  0  0  0  0  0  0  0  0
   24.1700   -4.0140   10.8280 N   0  0  0  0  0  0  0  0  0  0  0  0
   26.8410   -0.8900    3.1860 N   0  0  0  0  0  0  0  0  0  0  0  0
   24.7910   -0.5160    5.0140 O   0  0  0  0  0  0  0  0  0  0  0  0
   14.3150    1.9980    4.2270 F   0  0  0  0  0  0  0  0  0  0  0  0
   20.2200    0.6920    4.5210 F   0  0  0  0  0  0  0  0  0  0  0  0
   28.3560    1.6050    2.6070 F   0  0  0  0  0  0  0  0  0  0  0  0
   17.9830   -2.4410    9.0650 F   0  0  0  0  0  0  0  0  0  0  0  0
   17.1740   -0.5360    8.4940 F   0  0  0  0  0  0  0  0  0  0  0  0
   16.8730   -2.2990    7.2280 F   0  0  0  0  0  0  0  0  0  0  0  0
   15.0790   -0.7410    2.9520 S   0  0  0  0  0  0  0  0  0  0  0  0
  3  2  1  0
  5  1  1  0
  6  4  1  0
  7  5  1  0
  8  7  1  0
  8  2  1  0
  9  8  1  6
 10  9  1  0
 10  4  1  0
 11  6  1  0
 12  3  1  0
 13 11  1  0
 13  9  1  0
 14 12  1  0
 14  7  1  0
 15  6  1  0
 16  5  1  0
 20 19  1  0
 21 18  1  0
 25 18  1  0
 27 23  1  6
 27 19  1  0
 28 24  1  6
 28 20  1  0
 29 26  1  0
 29 22  1  0
 30 22  1  0
 30 21  1  0
 30 31  1  1
 32 10  1  0
 33  1  1  0
 34 11  1  0
 34 17  1  0
 35 17  1  0
 35 15  1  0
 36 24  1  0
 36 23  1  0
 36 15  1  0
 37 16  1  0
 38 28  1  0
 38 27  1  0
 39 30  1  0
 39 26  1  0
 39 25  1  0
 40 31  1  0
 40 17  1  0
 41 12  1  0
 42 13  1  0
 29 43  1  6
 32 44  1  1
 45 32  1  0
 46 32  1  0
 47 16  1  0
 47 14  1  0
M  END
$$$$

     RDKit          3D

 43 48  0  0  0  0  0  0  0  0999 V2000
   23.6610   -2.2120    7.1610 N   0  0  0  0  0  0  0  0  0  0  0  0
   24.0950   -4.4180   10.5570 C   0  0  0  0  0  0  0  0  0  0  0  0
   23.9450   -3.8140    9.1910 C   0  0  0  0  0  0  0  0  0  0  0  0
   23.7120   -3.4170   12.8790 C   0  0  0  0  0  0  0  0  0  0  0  0
   21.5970   -3.1910    9.8360 C   0  0  0  0  0  0  0  0  0  0  0  0
   22.2930   -2.6160   11.0610 C   0  0  1  0  0  0  0  0  0  0  0  0
   22.4670   -1.2300    5.3380 N   0  0  0  0  0  0  0  0  0  0  0  0
   19.9800   -1.5540    5.0820 C   0  0  0  0  0  0  0  0  0  0  0  0
   19.0970   -3.4800    6.2120 C   0  0  0  0  0  0  0  0  0  0  0  0
   16.1580   -2.6780    3.1170 C   0  0  0  0  0  0  0  0  0  0  0  0
   19.9820   -3.2050    7.4350 C   0  0  0  0  0  0  0  0  0  0  0  0
   22.5210   -2.7210    7.6600 C   0  0  1  0  0  0  0  0  0  0  0  0
   21.3130   -2.5540    6.9730 C   0  0  0  0  0  0  0  0  0  0  0  0
   23.5960   -1.4650    6.0220 C   0  0  0  0  0  0  0  0  0  0  0  0
   24.5330   -4.5320   13.5230 C   0  0  2  0  0  0  0  0  0  0  0  0
   17.6540   -1.8960    4.8770 C   0  0  0  0  0  0  0  0  0  0  0  0
   17.2490   -2.9040    3.9760 C   0  0  0  0  0  0  0  0  0  0  0  0
   21.3080   -1.7520    5.8160 C   0  0  1  0  0  0  0  0  0  0  0  0
   18.8050   -2.1350    5.7270 N   0  0  0  0  0  0  0  0  0  0  0  0
   22.5520   -3.5890    8.8270 N   0  0  0  0  0  0  0  0  0  0  0  0
   23.4020   -3.4940   11.5370 N   0  0  0  0  0  0  0  0  0  0  0  0
   23.3710   -2.4440   13.5610 O   0  0  0  0  0  0  0  0  0  0  0  0
   15.4600   -1.4530    3.1530 C   0  0  0  0  0  0  0  0  0  0  0  0
   15.8740   -0.4480    4.0420 C   0  0  0  0  0  0  0  0  0  0  0  0
   16.9650   -0.6530    4.9120 C   0  0  0  0  0  0  0  0  0  0  0  0
   15.1830    0.7800    4.0510 C   0  0  0  0  0  0  0  0  0  0  0  0
   15.5100    1.8470    4.8800 C   0  0  0  0  0  0  0  0  0  0  0  0
   16.5830    1.6720    5.7400 C   0  0  0  0  0  0  0  0  0  0  0  0
   17.2790    0.4400    5.7470 C   0  0  0  0  0  0  0  0  0  0  0  0
   24.7210   -0.8770    5.5390 O   0  0  0  0  0  0  0  0  0  0  0  0
   25.9640   -1.1920    6.1350 C   0  0  0  0  0  0  0  0  0  0  0  0
   27.0810   -0.5250    5.3170 C   0  0  1  0  0  0  0  0  0  0  0  0
   27.0040   -1.1960    3.9410 N   0  0  0  0  0  0  0  0  0  0  0  0
   26.5480   -0.2380    2.8630 C   0  0  0  0  0  0  0  0  0  0  0  0
   26.7690    1.1430    3.4930 C   0  0  0  0  0  0  0  0  0  0  0  0
   26.7350    0.9400    5.0150 C   0  0  0  0  0  0  0  0  0  0  0  0
   28.3080   -1.8410    3.5480 C   0  0  0  0  0  0  0  0  0  0  0  0
   22.8480   -1.1990   10.8860 C   0  0  0  0  0  0  0  0  0  0  0  0
   25.8800   -3.8940   13.8750 C   0  0  0  0  0  0  0  0  0  0  0  0
   21.6870   -0.3790   10.5600 C   0  0  0  0  0  0  0  0  0  0  0  0
   20.7660    0.2930   10.3670 N   0  0  0  0  0  0  0  0  0  0  0  0
   18.5270    0.3920    6.9250 Cl  0  0  0  0  0  0  0  0  0  0  0  0
   24.7110   -5.5850   12.6420 F   0  0  0  0  0  0  0  0  0  0  0  0
  3  2  1  0
  6  5  1  0
 11  9  1  0
 12  1  1  0
 13 11  1  0
 13 12  1  0
 14  7  1  0
 14  1  1  0
 15  4  1  0
 17 10  1  0
 17 16  1  0
 18  8  1  6
 18 13  1  0
 18  7  1  0
 19 16  1  0
 19  8  1  0
 19  9  1  0
 20  5  1  0
 12 20  1  6
 20  3  1  0
 21  2  1  0
 21  6  1  0
 21  4  1  0
 22  4  1  0
 23 10  1  0
 24 23  1  0
 25 24  1  0
 25 16  1  0
 26 24  1  0
 27 26  1  0
 28 27  1  0
 29 25  1  0
 29 28  1  0
 30 14  1  0
 31 30  1  0
 32 31  1  1
 33 32  1  0
 34 33  1  0
 35 34  1  0
 36 35  1  0
 36 32  1  0
 37 33  1  0
  6 38  1  6
 15 39  1  6
 40 38  1  0
 41 40  1  0
 42 29  1  0
 43 15  1  0
M  END
$$$$

     RDKit          3D

 28 31  0  0  0  0  0  0  0  0999 V2000
   19.3920   -0.4910    6.1830 C   0  0  2  0  0  0  0  0  0  0  0  0
   17.4440   -0.4560    4.6270 C   0  0  0  0  0  0  0  0  0  0  0  0
   15.7830    1.3090    4.7330 C   0  0  0  0  0  0  0  0  0  0  0  0
   19.5040   -0.9560    7.4640 C   0  0  0  0  0  0  0  0  0  0  0  0
   20.6730   -1.4690    7.9470 C   0  0  0  0  0  0  0  0  0  0  0  0
   22.7760   -2.0910   11.1950 C   0  0  0  0  0  0  0  0  0  0  0  0
   26.2540   -3.8640   14.0170 C   0  0  0  0  0  0  0  0  0  0  0  0
   23.6380   -2.4450   13.7470 O   0  0  0  0  0  0  0  0  0  0  0  0
   24.0330   -3.2530   12.9230 C   0  0  0  0  0  0  0  0  0  0  0  0
   23.6690   -3.1710   11.6190 N   0  0  0  0  0  0  0  0  0  0  0  0
   24.0880   -4.0610   10.4890 C   0  0  0  0  0  0  0  0  0  0  0  0
   23.2050   -3.8310    9.2400 C   0  0  0  0  0  0  0  0  0  0  0  0
   23.2180   -2.4500    8.8380 N   0  0  0  0  0  0  0  0  0  0  0  0
   23.0880   -2.0600    7.5630 C   0  0  2  0  0  0  0  0  0  0  0  0
   24.2170   -2.0570    6.7790 N   0  0  0  0  0  0  0  0  0  0  0  0
   23.9900   -1.5360    5.5360 C   0  0  0  0  0  0  0  0  0  0  0  0
   22.8620   -1.0290    5.0090 N   0  0  0  0  0  0  0  0  0  0  0  0
   21.7650   -1.0280    5.8480 C   0  0  0  0  0  0  0  0  0  0  0  0
   20.5280   -0.4800    5.3650 C   0  0  0  0  0  0  0  0  0  0  0  0
   18.1550    0.1280    5.6770 C   0  0  0  0  0  0  0  0  0  0  0  0
   16.2870    0.1570    4.1690 C   0  0  0  0  0  0  0  0  0  0  0  0
   16.4770    1.9040    5.7940 C   0  0  0  0  0  0  0  0  0  0  0  0
   17.6310    1.2940    6.2360 C   0  0  0  0  0  0  0  0  0  0  0  0
   18.3200    1.8350    7.2600 F   0  0  0  0  0  0  0  0  0  0  0  0
   21.8340   -1.5140    7.1530 C   0  0  0  0  0  0  0  0  0  0  0  0
   18.0910   -0.9500    8.4980 Cl  0  0  0  0  0  0  0  0  0  0  0  0
   23.2940   -1.4810    9.9310 C   0  0  0  0  0  0  0  0  0  0  0  0
   24.9600   -4.3770   13.3220 C   0  0  0  0  0  0  0  0  0  0  0  0
  4  1  1  0
  5  4  1  0
  9  8  1  0
 10  9  1  0
 10  6  1  0
 11 10  1  0
 12 11  1  0
 13 12  1  0
 14 13  1  1
 15 14  1  0
 16 15  1  0
 17 16  1  0
 18 17  1  0
 19 18  1  0
 19  1  1  0
 20  2  1  0
  1 20  1  1
 21  3  1  0
 21  2  1  0
 22  3  1  0
 23 22  1  0
 23 20  1  0
 24 23  1  0
 25 18  1  0
 25  5  1  0
 25 14  1  0
 26  4  1  0
 27 13  1  0
 27  6  1  0
 28  9  1  0
 28  7  1  0
M  END
$$$$

     RDKit          3D

 28 31  0  0  0  0  0  0  0  0999 V2000
   19.3200   -0.7830    6.3760 C   0  0  2  0  0  0  0  0  0  0  0  0
   17.3440   -1.0570    4.8880 C   0  0  0  0  0  0  0  0  0  0  0  0
   15.6590    0.6650    4.6480 C   0  0  0  0  0  0  0  0  0  0  0  0
   19.4370   -1.2120    7.7000 C   0  0  2  0  0  0  0  0  0  0  0  0
   20.6380   -1.6350    8.2150 C   0  0  0  0  0  0  0  0  0  0  0  0
   22.8130   -2.0980   11.4620 C   0  0  0  0  0  0  0  0  0  0  0  0
   26.2380   -3.9530   14.5370 C   0  0  0  0  0  0  0  0  0  0  0  0
   23.9990   -2.2680   13.8860 O   0  0  0  0  0  0  0  0  0  0  0  0
   24.2370   -3.1740   13.1070 C   0  0  0  0  0  0  0  0  0  0  0  0
   23.7150   -3.1830   11.8570 N   0  0  0  0  0  0  0  0  0  0  0  0
   23.8580   -4.2120   10.8050 C   0  0  0  0  0  0  0  0  0  0  0  0
   24.2260   -3.5760    9.4340 C   0  0  0  0  0  0  0  0  0  0  0  0
   23.3920   -2.4280    9.1270 N   0  0  0  0  0  0  0  0  0  0  0  0
   23.1250   -2.0620    7.8450 C   0  0  2  0  0  0  0  0  0  0  0  0
   24.2080   -1.9680    7.0210 N   0  0  0  0  0  0  0  0  0  0  0  0
   23.9120   -1.5010    5.7910 C   0  0  0  0  0  0  0  0  0  0  0  0
   22.7550   -1.0930    5.2810 N   0  0  0  0  0  0  0  0  0  0  0  0
   21.6980   -1.1440    6.1120 C   0  0  0  0  0  0  0  0  0  0  0  0
   20.4520   -0.7200    5.6050 C   0  0  0  0  0  0  0  0  0  0  0  0
   18.0670   -0.2720    5.7910 C   0  0  0  0  0  0  0  0  0  0  0  0
   16.1560   -0.5850    4.3380 C   0  0  0  0  0  0  0  0  0  0  0  0
   16.3620    1.4840    5.5410 C   0  0  0  0  0  0  0  0  0  0  0  0
   17.5480    0.9940    6.0860 C   0  0  0  0  0  0  0  0  0  0  0  0
   18.2440    1.7740    6.9580 F   0  0  0  0  0  0  0  0  0  0  0  0
   21.8070   -1.6090    7.4210 C   0  0  0  0  0  0  0  0  0  0  0  0
   18.0270   -1.2840    8.7210 Cl  0  0  0  0  0  0  0  0  0  0  0  0
   23.2990   -1.4510   10.2100 C   0  0  0  0  0  0  0  0  0  0  0  0
   25.1240   -4.3510   13.5160 C   0  0  0  0  0  0  0  0  0  0  0  0
  4  1  1  0
  5  4  1  0
  9  8  1  0
 10  9  1  0
 10  6  1  0
 11 10  1  0
 12 11  1  0
 13 12  1  0
 14 13  1  1
 15 14  1  0
 16 15  1  0
 17 16  1  0
 18 17  1  0
 19 18  1  0
 19  1  1  0
 20  2  1  0
  1 20  1  1
 21  3  1  0
 21  2  1  0
 22  3  1  0
 23 22  1  0
 23 20  1  0
 24 23  1  0
 25 18  1  0
 25  5  1  0
 25 14  1  0
  4 26  1  6
 27 13  1  0
 27  6  1  0
 28  9  1  0
 28  7  1  0
M  END
$$$$

     RDKit          3D

 28 31  0  0  0  0  0  0  0  0999 V2000
   19.3340   -0.8440    6.4060 C   0  0  2  0  0  0  0  0  0  0  0  0
   17.2860   -1.1810    5.0340 C   0  0  0  0  0  0  0  0  0  0  0  0
   15.6160    0.5610    4.7580 C   0  0  0  0  0  0  0  0  0  0  0  0
   19.4520   -1.2490    7.7290 C   0  0  0  0  0  0  0  0  0  0  0  0
   20.6520   -1.6580    8.2540 C   0  0  0  0  0  0  0  0  0  0  0  0
   22.7120   -2.2450   11.5010 C   0  0  0  0  0  0  0  0  0  0  0  0
   26.2670   -3.9480   14.5330 C   0  0  0  0  0  0  0  0  0  0  0  0
   23.8600   -2.4220   13.9760 O   0  0  0  0  0  0  0  0  0  0  0  0
   24.1850   -3.2700   13.1550 C   0  0  0  0  0  0  0  0  0  0  0  0
   23.6800   -3.2660   11.8970 N   0  0  0  0  0  0  0  0  0  0  0  0
   23.9470   -4.2470   10.8240 C   0  0  0  0  0  0  0  0  0  0  0  0
   24.3240   -3.5420    9.4960 C   0  0  0  0  0  0  0  0  0  0  0  0
   23.4050   -2.4550    9.1810 N   0  0  0  0  0  0  0  0  0  0  0  0
   23.1420   -2.0920    7.8940 C   0  0  2  0  0  0  0  0  0  0  0  0
   24.2250   -2.0290    7.0680 N   0  0  0  0  0  0  0  0  0  0  0  0
   23.9370   -1.5920    5.8370 C   0  0  0  0  0  0  0  0  0  0  0  0
   22.7820   -1.1930    5.3140 N   0  0  0  0  0  0  0  0  0  0  0  0
   21.7200   -1.2210    6.1410 C   0  0  0  0  0  0  0  0  0  0  0  0
   20.4680   -0.8020    5.6240 C   0  0  0  0  0  0  0  0  0  0  0  0
   18.0750   -0.3420    5.8250 C   0  0  1  0  0  0  0  0  0  0  0  0
   16.0810   -0.7160    4.5090 C   0  0  0  0  0  0  0  0  0  0  0  0
   16.3800    1.4170    5.5610 C   0  0  0  0  0  0  0  0  0  0  0  0
   17.5780    0.9420    6.0780 C   0  0  0  0  0  0  0  0  0  0  0  0
   18.3100    1.7690    6.8690 F   0  0  0  0  0  0  0  0  0  0  0  0
   21.8250   -1.6520    7.4590 C   0  0  0  0  0  0  0  0  0  0  0  0
   18.0390   -1.2820    8.7480 Cl  0  0  0  0  0  0  0  0  0  0  0  0
   23.1910   -1.5210   10.2830 C   0  0  0  0  0  0  0  0  0  0  0  0
   25.1630   -4.3940   13.5200 C   0  0  0  0  0  0  0  0  0  0  0  0
  4  1  1  0
  5  4  1  0
  9  8  1  0
 10  9  1  0
 10  6  1  0
 11 10  1  0
 12 11  1  0
 13 12  1  0
 14 13  1  1
 15 14  1  0
 16 15  1  0
 17 16  1  0
 18 17  1  0
 19 18  1  0
  1 19  1  1
 20  2  1  1
 20  1  1  0
 21  3  1  0
 21  2  1  0
 22  3  1  0
 23 22  1  0
 23 20  1  0
 24 23  1  0
 25 18  1  0
 25  5  1  0
 25 14  1  0
 26  4  1  0
 27 13  1  0
 27  6  1  0
 28  9  1  0
 28  7  1  0
M  END
$$$$

     RDKit          3D

 33 38  0  0  0  0  0  0  0  0999 V2000
   24.6560   -4.5400   13.7460 C   0  0  0  0  0  0  0  0  0  0  0  0
   23.6630   -3.4540   13.2630 C   0  0  0  0  0  0  0  0  0  0  0  0
   22.0670   -2.5290   11.6590 C   0  0  0  0  0  0  0  0  0  0  0  0
   20.0220   -2.3610    7.8010 C   0  0  0  0  0  0  0  0  0  0  0  0
   18.9340   -2.0200    7.0590 C   0  0  2  0  0  0  0  0  0  0  0  0
   19.0540   -1.4720    5.7780 C   0  0  1  0  0  0  0  0  0  0  0  0
   20.3150   -1.2850    5.2570 C   0  0  0  0  0  0  0  0  0  0  0  0
   21.4680   -1.6240    5.9950 C   0  0  0  0  0  0  0  0  0  0  0  0
   23.7770   -1.7380    6.0990 C   0  0  0  0  0  0  0  0  0  0  0  0
   23.7660   -2.2970    7.3770 C   0  0  0  0  0  0  0  0  0  0  0  0
   24.8310   -3.2240    9.3430 C   0  0  0  0  0  0  0  0  0  0  0  0
   23.5110   -3.9560    9.5740 C   0  0  1  0  0  0  0  0  0  0  0  0
   23.3180   -4.5130   10.9670 C   0  0  0  0  0  0  0  0  0  0  0  0
   16.1850    0.3550    4.0880 C   0  0  0  0  0  0  0  0  0  0  0  0
   15.5990   -0.6320    3.3220 C   0  0  0  0  0  0  0  0  0  0  0  0
   16.1110   -1.9170    3.4000 C   0  0  0  0  0  0  0  0  0  0  0  0
   17.2330   -2.2210    4.1870 C   0  0  0  0  0  0  0  0  0  0  0  0
   17.9090    1.2730    5.6520 C   0  0  0  0  0  0  0  0  0  0  0  0
   17.3590   -2.2130    7.7570 Cl  0  0  0  0  0  0  0  0  0  0  0  0
   17.8460   -1.1720    4.9480 C   0  0  0  0  0  0  0  0  0  0  0  0
   17.4430   -3.6050    3.9820 C   0  0  0  0  0  0  0  0  0  0  0  0
   16.5350   -4.1160    3.1730 N   0  0  0  0  0  0  0  0  0  0  0  0
   15.7100   -3.0850    2.8380 N   0  0  0  0  0  0  0  0  0  0  0  0
   17.3240    0.1320    4.8590 C   0  0  1  0  0  0  0  0  0  0  0  0
   21.3140   -2.1770    7.2860 C   0  0  0  0  0  0  0  0  0  0  0  0
   22.6990   -1.4340    5.4030 N   0  0  0  0  0  0  0  0  0  0  0  0
   22.5130   -2.5340    7.9510 C   0  0  2  0  0  0  0  0  0  0  0  0
   24.9340   -2.5930    8.0280 O   0  0  0  0  0  0  0  0  0  0  0  0
   22.4260   -3.0340    9.2600 N   0  0  0  0  0  0  0  0  0  0  0  0
   22.2270   -1.9850   10.2700 C   0  0  0  0  0  0  0  0  0  0  0  0
   23.1150   -3.5080   12.0160 N   0  0  0  0  0  0  0  0  0  0  0  0
   23.3720   -2.5590   14.0490 O   0  0  0  0  0  0  0  0  0  0  0  0
   25.9160   -3.9570   14.2530 C   0  0  0  0  0  0  0  0  0  0  0  0
  2  1  1  0
  5  4  1  0
  6  5  1  0
  7  6  1  0
  8  7  1  0
 10  9  1  0
 12 11  1  1
 13 12  1  0
 15 14  1  0
 16 15  1  0
 17 16  1  0
  5 19  1  1
 20 17  1  0
  6 20  1  6
 21 17  1  0
 22 21  1  0
 23 16  1  0
 23 22  1  0
 24 14  1  0
 24 20  1  0
 24 18  1  1
 25  8  1  0
 25  4  1  0
 26  8  1  0
 26  9  1  0
 27 25  1  1
 27 10  1  0
 28 11  1  0
 28 10  1  0
 29 27  1  0
 29 12  1  0
 30 29  1  0
 30  3  1  0
 31 13  1  0
 31  3  1  0
 31  2  1  0
 32  2  1  0
 33  1  1  0
M  END
$$$$

     RDKit          3D

 46 52  0  0  0  0  0  0  0  0999 V2000
   16.2720    0.8040    3.4050 C   0  0  0  0  0  0  0  0  0  0  0  0
   15.6210   -0.2210    2.7430 C   0  0  0  0  0  0  0  0  0  0  0  0
   20.4960   -1.7330    6.6530 C   0  0  0  0  0  0  0  0  0  0  0  0
   17.7180   -3.0720    3.1870 C   0  0  0  0  0  0  0  0  0  0  0  0
   21.7090   -1.6250    6.0070 C   0  0  1  0  0  0  0  0  0  0  0  0
   17.4380   -1.6910    3.3990 C   0  0  0  0  0  0  0  0  0  0  0  0
   18.0700   -0.6470    4.0530 C   0  0  0  0  0  0  0  0  0  0  0  0
   19.3170   -0.9800    4.7180 C   0  0  0  0  0  0  0  0  0  0  0  0
   19.3140   -1.4290    6.0200 C   0  0  0  0  0  0  0  0  0  0  0  0
   17.4740    0.6050    4.0600 C   0  0  0  0  0  0  0  0  0  0  0  0
   21.7080   -1.1450    4.7090 C   0  0  0  0  0  0  0  0  0  0  0  0
   16.2330   -1.4580    2.7610 C   0  0  0  0  0  0  0  0  0  0  0  0
   20.5200   -0.8400    4.0750 C   0  0  0  0  0  0  0  0  0  0  0  0
   22.9430   -1.8870    6.6130 C   0  0  0  0  0  0  0  0  0  0  0  0
   23.9870   -1.2390    4.7000 C   0  0  0  0  0  0  0  0  0  0  0  0
   17.8300   -0.6580    7.6660 C   0  0  0  0  0  0  0  0  0  0  0  0
   25.9870   -4.1740   14.5390 C   0  0  0  0  0  0  0  0  0  0  0  0
   18.0840   -1.5930    6.7500 C   0  0  0  0  0  0  0  0  0  0  0  0
   24.5160   -4.5270   14.5380 C   0  0  0  0  0  0  0  0  0  0  0  0
   23.7380   -3.3150   14.1290 C   0  0  0  0  0  0  0  0  0  0  0  0
   26.6780    0.3010    5.1380 C   0  0  0  0  0  0  0  0  0  0  0  0
   27.3250   -1.1780    3.1940 C   0  0  0  0  0  0  0  0  0  0  0  0
   21.8200   -2.7280   10.2150 C   0  0  0  0  0  0  0  0  0  0  0  0
   24.2120   -1.9200    9.9710 C   0  0  0  0  0  0  0  0  0  0  0  0
   26.8850    1.4980    4.2490 C   0  0  0  0  0  0  0  0  0  0  0  0
   27.6680    0.0400    2.3530 C   0  0  0  0  0  0  0  0  0  0  0  0
   21.8850   -2.8170    8.7160 C   0  0  0  0  0  0  0  0  0  0  0  0
   24.3320   -2.5770    8.6140 C   0  0  0  0  0  0  0  0  0  0  0  0
   23.7280   -3.8570   11.5480 C   0  0  0  0  0  0  0  0  0  0  0  0
   22.7950   -2.0310   12.1960 C   0  0  0  0  0  0  0  0  0  0  0  0
   26.3650   -0.9780    4.3680 C   0  0  2  0  0  0  0  0  0  0  0  0
   23.1730   -2.6160   10.8380 C   0  0  2  0  0  0  0  0  0  0  0  0
   18.1270    1.7600    4.7600 C   0  0  0  0  0  0  0  0  0  0  0  0
   21.6200   -1.0780    0.7980 C   0  0  0  0  0  0  0  0  0  0  0  0
   28.0410    2.4550    2.3490 C   0  0  0  0  0  0  0  0  0  0  0  0
   20.6540   -1.4630    1.8800 C   0  0  0  0  0  0  0  0  0  0  0  0
   16.7580   -3.6670    2.4730 N   0  0  0  0  0  0  0  0  0  0  0  0
   22.8530   -0.9690    4.0610 N   0  0  0  0  0  0  0  0  0  0  0  0
   24.0910   -1.6740    5.9650 N   0  0  0  0  0  0  0  0  0  0  0  0
   15.8820   -2.6740    2.2320 N   0  0  0  0  0  0  0  0  0  0  0  0
   23.0550   -2.3850    7.9540 N   0  0  0  0  0  0  0  0  0  0  0  0
   23.5490   -3.1260   12.7860 N   0  0  0  0  0  0  0  0  0  0  0  0
   27.8960    1.2560    3.1850 N   0  0  0  0  0  0  0  0  0  0  0  0
   23.3230   -2.5220   14.9780 O   0  0  0  0  0  0  0  0  0  0  0  0
   20.5040   -0.3570    2.7750 O   0  0  0  0  0  0  0  0  0  0  0  0
   25.0290   -0.9830    3.8230 O   0  0  0  0  0  0  0  0  0  0  0  0
  2  1  1  0
  5  3  1  1
  6  4  1  0
  7  6  1  0
  8  7  1  0
  9  8  1  0
  9  3  1  0
 10  1  1  0
 10  7  1  0
 11  5  1  0
 12  2  1  0
 12  6  1  0
 13 11  1  0
 13  8  1  0
 14  5  1  0
 18 16  1  0
 18  9  1  0
 19 17  1  0
 20 19  1  0
 25 21  1  0
 26 22  1  0
 27 23  1  0
 28 24  1  0
 31 21  1  0
 31 22  1  0
 32 24  1  6
 32 23  1  0
 32 30  1  0
 32 29  1  0
 33 10  1  0
 36 34  1  0
 37  4  1  0
 38 11  1  0
 38 15  1  0
 39 15  1  0
 39 14  1  0
 40 12  1  0
 40 37  1  0
 41 28  1  0
 41 27  1  0
 41 14  1  0
 42 30  1  0
 42 29  1  0
 42 20  1  0
 43 25  1  0
 43 35  1  0
 43 26  1  0
 44 20  1  0
 45 36  1  0
 45 13  1  0
 31 46  1  6
 46 15  1  0
M  END
$$$$

     RDKit          3D

 38 42  0  0  0  0  0  0  0  0999 V2000
   17.5800   -2.8760    4.5570 C   0  0  0  0  0  0  0  0  0  0  0  0
   24.1740   -3.8940   11.1810 C   0  0  0  0  0  0  0  0  0  0  0  0
   24.2860   -3.0110    9.9320 C   0  0  0  0  0  0  0  0  0  0  0  0
   17.9830   -1.7190    5.2220 C   0  0  0  0  0  0  0  0  0  0  0  0
   21.8180   -2.6060   10.5220 C   0  0  0  0  0  0  0  0  0  0  0  0
   22.4070   -2.1680   11.8480 C   0  0  0  0  0  0  0  0  0  0  0  0
   22.7310   -2.0520    8.2670 C   0  0  0  0  0  0  0  0  0  0  0  0
   23.7020   -0.7540    6.6840 C   0  0  1  0  0  0  0  0  0  0  0  0
   17.2990   -0.4820    5.0100 C   0  0  0  0  0  0  0  0  0  0  0  0
   19.1050   -1.7510    6.1480 N   0  0  0  0  0  0  0  0  0  0  0  0
   21.5170   -2.0070    7.5550 C   0  0  2  0  0  0  0  0  0  0  0  0
   20.2960   -2.8590    7.9520 C   0  0  0  0  0  0  0  0  0  0  0  0
   19.4450   -3.1270    6.6750 C   0  0  0  0  0  0  0  0  0  0  0  0
   21.4910   -1.2730    6.3600 C   0  0  2  0  0  0  0  0  0  0  0  0
   16.5080   -2.8290    3.6150 C   0  0  0  0  0  0  0  0  0  0  0  0
   15.8420   -1.6380    3.3520 C   0  0  0  0  0  0  0  0  0  0  0  0
   16.2300   -0.4540    4.0750 C   0  0  0  0  0  0  0  0  0  0  0  0
   20.2910   -1.1710    5.4690 C   0  0  0  0  0  0  0  0  0  0  0  0
   22.6060   -0.6610    5.9050 N   0  0  0  0  0  0  0  0  0  0  0  0
   23.8460   -1.4410    7.8100 N   0  0  0  0  0  0  0  0  0  0  0  0
   22.8840   -2.7610    9.5000 N   0  0  0  0  0  0  0  0  0  0  0  0
   23.4280   -3.2030   12.2580 N   0  0  0  0  0  0  0  0  0  0  0  0
   23.7480   -3.3410   13.5710 C   0  0  0  0  0  0  0  0  0  0  0  0
   24.5880   -4.5390   13.9660 C   0  0  0  0  0  0  0  0  0  0  0  0
   23.3220   -2.5180   14.4180 O   0  0  0  0  0  0  0  0  0  0  0  0
   26.0220   -4.0540   14.5110 C   0  0  0  0  0  0  0  0  0  0  0  0
   15.5210    0.7580    3.8290 C   0  0  0  0  0  0  0  0  0  0  0  0
   15.8510    1.9380    4.5440 C   0  0  0  0  0  0  0  0  0  0  0  0
   16.8980    1.8450    5.4860 C   0  0  0  0  0  0  0  0  0  0  0  0
   17.6680    0.6950    5.6990 C   0  0  0  0  0  0  0  0  0  0  0  0
   16.1690   -4.0260    2.9810 O   0  0  0  0  0  0  0  0  0  0  0  0
   24.7740   -0.1370    6.1260 O   0  0  0  0  0  0  0  0  0  0  0  0
   25.9860    0.0150    6.9150 C   0  0  1  0  0  0  0  0  0  0  0  0
   27.1500    0.4050    6.0180 C   0  0  0  0  0  0  0  0  0  0  0  0
   27.2300   -0.6600    5.0210 N   0  0  0  0  0  0  0  0  0  0  0  0
   28.3890   -1.5350    5.2330 C   0  0  0  0  0  0  0  0  0  0  0  0
   27.2930   -0.0330    3.6620 C   0  0  0  0  0  0  0  0  0  0  0  0
   25.8230    1.0420    8.0450 C   0  0  0  0  0  0  0  0  0  0  0  0
  3  2  1  0
  4  1  1  0
  6  5  1  0
  9  4  1  0
 10  4  1  0
 11  7  1  0
 11 12  1  6
 13 12  1  0
 13 10  1  0
 14 11  1  0
 15  1  1  0
 16 15  1  0
 17 16  1  0
 17  9  1  0
 14 18  1  6
 18 10  1  0
 19 14  1  0
 19  8  1  0
 20  8  1  0
 20  7  1  0
 21  7  1  0
 21  5  1  0
 21  3  1  0
 22  6  1  0
 22  2  1  0
 23 22  1  0
 24 23  1  0
 25 23  1  0
 26 24  1  0
 27 17  1  0
 28 27  1  0
 29 28  1  0
 30  9  1  0
 30 29  1  0
 31 15  1  0
  8 32  1  6
 33 32  1  0
 34 33  1  0
 35 34  1  0
 36 35  1  0
 37 35  1  0
 33 38  1  1
M  END
$$$$

     RDKit          3D

 30 34  0  0  0  0  0  0  0  0999 V2000
   24.8690   -4.2950   14.0060 C   0  0  0  0  0  0  0  0  0  0  0  0
   23.9530   -3.1500   13.5350 C   0  0  0  0  0  0  0  0  0  0  0  0
   24.4690   -3.6390   11.0900 C   0  0  0  0  0  0  0  0  0  0  0  0
   21.5220   -2.4130    6.3110 C   0  0  0  0  0  0  0  0  0  0  0  0
   20.4790   -2.0930    5.4560 C   0  0  0  0  0  0  0  0  0  0  0  0
   19.3050   -1.5440    5.9540 C   0  0  2  0  0  0  0  0  0  0  0  0
   19.1780   -1.3850    7.3330 C   0  0  2  0  0  0  0  0  0  0  0  0
   20.2240   -1.7270    8.2000 C   0  0  0  0  0  0  0  0  0  0  0  0
   21.0790   -1.1770   10.3890 C   0  0  0  0  0  0  0  0  0  0  0  0
   21.8360   -2.3940   10.8320 C   0  0  2  0  0  0  0  0  0  0  0  0
   22.8970   -1.8780   11.7750 C   0  0  0  0  0  0  0  0  0  0  0  0
   18.2230   -1.2250    4.9590 C   0  0  0  0  0  0  0  0  0  0  0  0
   17.7570    0.0840    4.7690 C   0  0  1  0  0  0  0  0  0  0  0  0
   16.5870   -1.9880    3.3230 C   0  0  0  0  0  0  0  0  0  0  0  0
   17.6500   -2.2790    4.2040 C   0  0  0  0  0  0  0  0  0  0  0  0
   17.8390   -3.6740    4.0790 C   0  0  0  0  0  0  0  0  0  0  0  0
   18.4130    1.2630    5.4480 C   0  0  0  0  0  0  0  0  0  0  0  0
   17.6770   -0.8870    8.0020 Cl  0  0  0  0  0  0  0  0  0  0  0  0
   21.4310   -2.2120    7.6890 C   0  0  2  0  0  0  0  0  0  0  0  0
   22.6680   -2.4080    8.5300 C   0  0  0  0  0  0  0  0  0  0  0  0
   19.9910   -1.6080    9.5630 O   0  0  0  0  0  0  0  0  0  0  0  0
   22.4360   -3.1860    9.7270 N   0  0  0  0  0  0  0  0  0  0  0  0
   23.4680   -4.1710   10.1020 C   0  0  0  0  0  0  0  0  0  0  0  0
   23.7830   -2.9570   12.2090 N   0  0  0  0  0  0  0  0  0  0  0  0
   23.3960   -2.4250   14.3680 O   0  0  0  0  0  0  0  0  0  0  0  0
   26.1980   -3.8770   14.6870 C   0  0  0  0  0  0  0  0  0  0  0  0
   16.9740   -4.2040    3.2340 N   0  0  0  0  0  0  0  0  0  0  0  0
   16.2010   -3.1730    2.7880 N   0  0  0  0  0  0  0  0  0  0  0  0
   16.1010   -0.7060    3.1620 C   0  0  0  0  0  0  0  0  0  0  0  0
   16.6940    0.3100    3.8830 C   0  0  0  0  0  0  0  0  0  0  0  0
  2  1  1  0
  5  4  1  0
  6  5  1  0
  7  6  1  0
  8  7  1  0
 10  9  1  6
 11 10  1  0
  6 12  1  1
 13 12  1  0
 15 14  1  0
 15 12  1  0
 16 15  1  0
 13 17  1  6
  7 18  1  1
 19  8  1  0
 19  4  1  6
 20 19  1  0
 21  9  1  0
 21  8  1  0
 22 20  1  0
 22 10  1  0
 23 22  1  0
 23  3  1  0
 24 11  1  0
 24  3  1  0
 24  2  1  0
 25  2  1  0
 26  1  1  0
 27 16  1  0
 28 27  1  0
 28 14  1  0
 29 14  1  0
 30 29  1  0
 30 13  1  0
M  END
$$$$

     RDKit          3D

 34 38  0  0  0  0  0  0  0  0999 V2000
   24.8720   -4.3230   12.9490 C   0  0  0  0  0  0  0  0  0  0  0  0
   24.1250   -3.1060   12.5230 C   0  0  2  0  0  0  0  0  0  0  0  0
   23.2380   -1.5770   10.8420 C   0  0  0  0  0  0  0  0  0  0  0  0
   19.9640   -1.9950    7.6170 C   0  0  1  0  0  0  0  0  0  0  0  0
   21.2280   -1.8930    7.0330 C   0  0  2  0  0  0  0  0  0  0  0  0
   21.3290   -1.1530    5.8190 C   0  0  2  0  0  0  0  0  0  0  0  0
   20.1750   -0.4940    5.3360 C   0  0  0  0  0  0  0  0  0  0  0  0
   18.9500   -0.5730    5.9500 C   0  0  2  0  0  0  0  0  0  0  0  0
   18.8710   -1.3150    7.1290 C   0  0  0  0  0  0  0  0  0  0  0  0
   17.7260    0.0160    5.3370 C   0  0  0  0  0  0  0  0  0  0  0  0
   17.0930   -0.5800    4.2380 C   0  0  2  0  0  0  0  0  0  0  0  0
   15.9810    0.0490    3.6640 C   0  0  0  0  0  0  0  0  0  0  0  0
   15.4910    1.2150    4.2040 C   0  0  0  0  0  0  0  0  0  0  0  0
   23.5010   -1.8570    5.5560 C   0  0  0  0  0  0  0  0  0  0  0  0
   22.4410   -2.5060    7.4570 C   0  0  1  0  0  0  0  0  0  0  0  0
   23.6110   -3.9090    9.1320 C   0  0  0  0  0  0  0  0  0  0  0  0
   24.6780   -3.4050   10.0840 C   0  0  1  0  0  0  0  0  0  0  0  0
   20.3160    0.2330    4.2100 F   0  0  0  0  0  0  0  0  0  0  0  0
   17.1960    1.1970    5.8220 C   0  0  0  0  0  0  0  0  0  0  0  0
   17.8130    1.7580    6.8820 F   0  0  0  0  0  0  0  0  0  0  0  0
   16.0820    1.8040    5.2910 C   0  0  0  0  0  0  0  0  0  0  0  0
   17.5630   -1.7820    3.8360 O   0  0  0  0  0  0  0  0  0  0  0  0
   17.3590   -1.3980    7.9520 Cl  0  0  0  0  0  0  0  0  0  0  0  0
   19.8840   -3.0870    8.4650 O   0  0  0  0  0  0  0  0  0  0  0  0
   19.7280   -2.7120    9.8130 C   0  0  0  0  0  0  0  0  0  0  0  0
   21.0830   -2.8580   10.6340 C   0  0  0  0  0  0  0  0  0  0  0  0
   22.4860   -1.1170    5.0890 N   0  0  0  0  0  0  0  0  0  0  0  0
   23.5690   -2.5830    6.6820 N   0  0  0  0  0  0  0  0  0  0  0  0
   22.6920   -2.8190    8.7710 N   0  0  0  0  0  0  0  0  0  0  0  0
   22.1430   -2.0540    9.9040 C   0  0  2  0  0  0  0  0  0  0  0  0
   25.7010   -2.4800    9.4310 C   0  0  0  0  0  0  0  0  0  0  0  0
   24.0180   -2.7620   11.2330 N   0  0  0  0  0  0  0  0  0  0  0  0
   23.6760   -2.3780   13.3950 O   0  0  0  0  0  0  0  0  0  0  0  0
   26.0290   -3.9200   13.8450 C   0  0  0  0  0  0  0  0  0  0  0  0
  2  1  1  0
  5  4  1  6
  6  5  1  0
  7  6  1  0
  8  7  1  0
  9  8  1  0
  9  4  1  0
  8 10  1  6
 11 10  1  0
 12 11  1  0
 13 12  1  0
 15  5  1  0
 17 16  1  0
 18  7  1  0
 19 10  1  0
 20 19  1  0
 21 13  1  0
 21 19  1  0
 11 22  1  1
 23  9  1  0
  4 24  1  6
 25 24  1  0
 26 25  1  0
  6 27  1  6
 27 14  1  0
 15 28  1  1
 28 14  1  0
 29 16  1  0
 29 15  1  0
 30 26  1  1
 30 29  1  0
 30  3  1  0
 17 31  1  6
 32 17  1  0
 32  3  1  0
 32  2  1  0
  2 33  1  1
 34  1  1  0
M  END
$$$$

     RDKit          3D

 28 31  0  0  0  0  0  0  0  0999 V2000
   20.2820   -0.6050    8.1580 C   0  0  0  0  0  0  0  0  0  0  0  0
   20.8880    0.0450    9.3650 C   0  0  0  0  0  0  0  0  0  0  0  0
   22.5070   -1.6070    9.4990 C   0  0  0  0  0  0  0  0  0  0  0  0
   21.9880   -2.2650    8.3750 C   0  0  0  0  0  0  0  0  0  0  0  0
   24.0230   -3.5540   10.0290 C   0  0  0  0  0  0  0  0  0  0  0  0
   24.2630   -3.0730   12.2990 N   0  0  0  0  0  0  0  0  0  0  0  0
   24.4190   -3.1910   13.6210 C   0  0  0  0  0  0  0  0  0  0  0  0
   25.3340   -4.2870   14.1540 C   0  0  0  0  0  0  0  0  0  0  0  0
   23.4560   -1.9940   11.7510 C   0  0  0  0  0  0  0  0  0  0  0  0
   18.6330   -0.6510    6.4030 C   0  0  0  0  0  0  0  0  0  0  0  0
   17.4340   -0.0370    5.7440 C   0  0  0  0  0  0  0  0  0  0  0  0
   17.2730    1.3410    5.6760 C   0  0  0  0  0  0  0  0  0  0  0  0
   16.1450    1.8740    5.0690 C   0  0  0  0  0  0  0  0  0  0  0  0
   15.3200   -0.3180    4.5620 C   0  0  0  0  0  0  0  0  0  0  0  0
   26.2010   -3.8480   15.3360 C   0  0  0  0  0  0  0  0  0  0  0  0
   23.8070   -2.4410   14.3850 O   0  0  0  0  0  0  0  0  0  0  0  0
   24.7980   -3.9680   11.2720 C   0  0  0  0  0  0  0  0  0  0  0  0
   23.6670   -2.0890   10.2500 C   0  0  2  0  0  0  0  0  0  0  0  0
   21.9440   -0.4880    9.9410 N   0  0  0  0  0  0  0  0  0  0  0  0
   20.4170    1.0850    9.8410 O   0  0  0  0  0  0  0  0  0  0  0  0
   19.1770   -0.0550    7.5390 C   0  0  0  0  0  0  0  0  0  0  0  0
   20.8580   -1.7690    7.7020 C   0  0  0  0  0  0  0  0  0  0  0  0
   20.3200   -2.3960    6.5700 C   0  0  0  0  0  0  0  0  0  0  0  0
   19.2020   -1.8450    5.9300 C   0  0  0  0  0  0  0  0  0  0  0  0
   16.4530   -0.8680    5.1750 C   0  0  0  0  0  0  0  0  0  0  0  0
   15.1730    1.0580    4.5150 C   0  0  0  0  0  0  0  0  0  0  0  0
   14.0960    1.6270    3.9540 F   0  0  0  0  0  0  0  0  0  0  0  0
   18.1690    2.2160    6.1800 F   0  0  0  0  0  0  0  0  0  0  0  0
  2  1  1  0
  4  3  1  0
  7  6  1  0
  8  7  1  0
  9  6  1  0
 11 10  1  0
 12 11  1  0
 13 12  1  0
 15  8  1  0
 16  7  1  0
 17  5  1  0
 17  6  1  0
 18  5  1  0
 18  3  1  6
 18  9  1  0
 19  2  1  0
 19  3  1  0
 20  2  1  0
 21 10  1  0
 21  1  1  0
 22  1  1  0
 22  4  1  0
 23 22  1  0
 24 23  1  0
 24 10  1  0
 25 14  1  0
 25 11  1  0
 26 14  1  0
 26 13  1  0
 27 26  1  0
 28 12  1  0
M  END
$$$$

     RDKit          3D

 41 47  0  0  0  0  0  0  0  0999 V2000
   17.9820   -1.6010    4.7740 C   0  0  1  0  0  0  0  0  0  0  0  0
   21.7570   -2.4730    6.7070 C   0  0  1  0  0  0  0  0  0  0  0  0
   22.4100   -3.8860    9.5440 C   0  0  0  0  0  0  0  0  0  0  0  0
   22.9270   -3.1970   10.8190 C   0  0  1  0  0  0  0  0  0  0  0  0
   24.7570   -2.8720   12.5160 C   0  0  0  0  0  0  0  0  0  0  0  0
   25.2540   -3.4650   10.0520 C   0  0  0  0  0  0  0  0  0  0  0  0
   17.4370    0.6130    5.9740 C   0  0  0  0  0  0  0  0  0  0  0  0
   16.5940    1.7130    6.0520 C   0  0  0  0  0  0  0  0  0  0  0  0
   15.4820    1.8500    5.1820 C   0  0  0  0  0  0  0  0  0  0  0  0
   15.2290    0.8840    4.2060 C   0  0  0  0  0  0  0  0  0  0  0  0
   16.0880   -0.2300    4.1010 C   0  0  0  0  0  0  0  0  0  0  0  0
   15.7790   -1.1700    3.1030 C   0  0  0  0  0  0  0  0  0  0  0  0
   16.5760   -2.3130    2.9440 C   0  0  0  0  0  0  0  0  0  0  0  0
   17.6880   -2.4940    3.7840 C   0  0  0  0  0  0  0  0  0  0  0  0
   19.2740   -1.9700    5.5630 C   0  0  2  0  0  0  0  0  0  0  0  0
   20.3900   -1.2870    5.1040 C   0  0  0  0  0  0  0  0  0  0  0  0
   21.6760   -1.5520    5.6940 C   0  0  0  0  0  0  0  0  0  0  0  0
   20.5290   -3.1620    7.0910 C   0  0  0  0  0  0  0  0  0  0  0  0
   23.0460   -2.7130    7.2490 C   0  0  2  0  0  0  0  0  0  0  0  0
   24.2960   -3.6580   11.1460 C   0  0  2  0  0  0  0  0  0  0  0  0
   24.7890   -4.1110    8.7200 C   0  0  0  0  0  0  0  0  0  0  0  0
   23.9670   -1.1540    5.8280 C   0  0  0  0  0  0  0  0  0  0  0  0
   26.3010   -1.1530    5.4790 C   0  0  0  0  0  0  0  0  0  0  0  0
   27.3150   -0.5530    4.3660 C   0  0  1  0  0  0  0  0  0  0  0  0
   26.4190    0.1340    2.3290 C   0  0  0  0  0  0  0  0  0  0  0  0
   27.3440    1.1840    2.9020 C   0  0  0  0  0  0  0  0  0  0  0  0
   27.3350    0.7770    4.3930 C   0  0  0  0  0  0  0  0  0  0  0  0
   27.8780   -2.2040    2.5830 C   0  0  0  0  0  0  0  0  0  0  0  0
   28.7720   -2.4790    4.0280 C   0  0  0  0  0  0  0  0  0  0  0  0
   28.7930   -1.1650    4.6660 C   0  0  0  0  0  0  0  0  0  0  0  0
   17.1810   -0.3930    4.9520 C   0  0  0  0  0  0  0  0  0  0  0  0
   20.2610   -0.3670    4.1220 F   0  0  0  0  0  0  0  0  0  0  0  0
   19.3500   -2.9090    6.5200 N   0  0  0  0  0  0  0  0  0  0  0  0
   23.3690   -3.5950    8.3840 N   0  0  0  0  0  0  0  0  0  0  0  0
   24.0850   -2.0450    6.8220 N   0  0  0  0  0  0  0  0  0  0  0  0
   26.9170   -0.9960    2.8910 N   0  0  0  0  0  0  0  0  0  0  0  0
   22.7750   -0.8860    5.2750 N   0  0  0  0  0  0  0  0  0  0  0  0
   22.8730   -1.7710   10.6430 O   0  0  0  0  0  0  0  0  0  0  0  0
   23.9070   -2.3040   13.2050 O   0  0  0  0  0  0  0  0  0  0  0  0
   25.0970   -0.4680    5.3760 O   0  0  0  0  0  0  0  0  0  0  0  0
   18.7450    0.5610    7.1650 Cl  0  0  0  0  0  0  0  0  0  0  0  0
  4  3  1  0
  8  7  1  0
  9  8  1  0
 10  9  1  0
 11 10  1  0
 12 11  1  0
 13 12  1  0
 14 13  1  0
  1 14  1  6
 15  1  1  0
 16 15  1  0
 17 16  1  0
 17  2  1  0
  2 18  1  6
 19  2  1  0
 20  6  1  0
 20  4  1  0
 20  5  1  1
 21  6  1  0
 24 23  1  1
 26 25  1  0
 27 26  1  0
 27 24  1  0
 29 28  1  0
 30 29  1  0
 30 24  1  0
 31 11  1  0
 31  1  1  0
 31  7  1  0
 32 16  1  0
 33 18  1  0
 15 33  1  6
 34 21  1  0
 19 34  1  1
 34  3  1  0
 35 22  1  0
 35 19  1  0
 36 25  1  0
 36 28  1  0
 36 24  1  0
 37 17  1  0
 37 22  1  0
  4 38  1  6
 39  5  1  0
 40 23  1  0
 40 22  1  0
 41  7  1  0
M  END
$$$$

     RDKit          3D

 12 13  0  0  0  0  0  0  0  0999 V2000
   16.8910   -2.1700    4.8780 C   0  0  0  0  0  0  0  0  0  0  0  0
   15.9840   -2.2070    3.6610 C   0  0  0  0  0  0  0  0  0  0  0  0
   16.9730   -0.6820    5.3940 C   0  0  0  0  0  0  0  0  0  0  0  0
   15.4490   -0.7080    3.3760 S   0  0  0  0  0  0  0  0  0  0  0  0
   16.0790    0.2030    4.4550 C   0  0  0  0  0  0  0  0  0  0  0  0
   17.5970   -3.3240    5.5000 C   0  0  0  0  0  0  0  0  0  0  0  0
   18.1430   -4.2010    5.9880 N   0  0  0  0  0  0  0  0  0  0  0  0
   15.6560   -3.3770    2.9110 N   0  0  0  0  0  0  0  0  0  0  0  0
   17.7110   -0.0040    6.5590 C   0  0  0  0  0  0  0  0  0  0  0  0
   16.0200    1.6980    4.7880 C   0  0  0  0  0  0  0  0  0  0  0  0
   17.6710    1.4120    6.5940 C   0  0  0  0  0  0  0  0  0  0  0  0
   16.4540    2.0490    6.0910 C   0  0  0  0  0  0  0  0  0  0  0  0
  2  1  1  0
  3  1  1  0
  4  2  1  0
  5  4  1  0
  5  3  1  0
  6  1  1  0
  7  6  1  0
  8  2  1  0
  9  3  1  0
 10  5  1  0
 11  9  1  0
 12 10  1  0
 12 11  1  0
M  END
$$$$

     RDKit          3D

 33 37  0  0  0  0  0  0  0  0999 V2000
   27.6750    1.0160    2.2160 C   0  0  0  0  0  0  0  0  0  0  0  0
   27.2410    0.0580    1.1530 C   0  0  0  0  0  0  0  0  0  0  0  0
   27.9680   -1.1570    1.5680 C   0  0  0  0  0  0  0  0  0  0  0  0
   26.3710    0.3920    4.3450 C   0  0  2  0  0  0  0  0  0  0  0  0
   24.0480   -0.4820    5.3860 N   0  0  0  0  0  0  0  0  0  0  0  0
   25.1630   -1.0070    5.8820 C   0  0  0  0  0  0  0  0  0  0  0  0
   15.7310    1.6170    4.9290 C   0  0  0  0  0  0  0  0  0  0  0  0
   17.7580    1.5840    6.3690 C   0  0  0  0  0  0  0  0  0  0  0  0
   17.2150   -0.4430    5.0020 C   0  0  0  0  0  0  0  0  0  0  0  0
   17.3440   -1.7300    4.4040 C   0  0  0  0  0  0  0  0  0  0  0  0
   16.3810   -1.9830    3.4380 C   0  0  0  0  0  0  0  0  0  0  0  0
   17.9310   -0.7520    7.3580 C   0  0  0  0  0  0  0  0  0  0  0  0
   21.5870   -0.3870    5.5560 C   0  0  2  0  0  0  0  0  0  0  0  0
   28.8020   -2.0230    3.7470 C   0  0  0  0  0  0  0  0  0  0  0  0
   22.9050   -0.9000    5.9400 C   0  0  2  0  0  0  0  0  0  0  0  0
   25.2010   -1.9150    6.9420 C   0  0  0  0  0  0  0  0  0  0  0  0
   16.2680    1.8860    6.3180 C   0  0  0  0  0  0  0  0  0  0  0  0
   18.1130    0.0950    6.0900 C   0  0  2  0  0  0  0  0  0  0  0  0
   16.1580    0.2460    4.5040 C   0  0  0  0  0  0  0  0  0  0  0  0
   19.5610    0.0130    5.6730 C   0  0  0  0  0  0  0  0  0  0  0  0
   27.6520    0.2190    3.5280 C   0  0  1  0  0  0  0  0  0  0  0  0
   18.3440   -2.6990    4.7060 C   0  0  0  0  0  0  0  0  0  0  0  0
   26.2790    1.7410    5.0170 C   0  0  0  0  0  0  0  0  0  0  0  0
   23.9620   -2.2380    7.4550 C   0  0  0  0  0  0  0  0  0  0  0  0
   22.8060   -1.7450    6.9850 N   0  0  0  0  0  0  0  0  0  0  0  0
   27.7590   -1.2170    3.0440 N   0  0  1  0  0  0  0  0  0  0  0  0
   21.3880    0.3940    4.5260 N   0  0  0  0  0  0  0  0  0  0  0  0
   20.4700   -0.6330    6.3030 N   0  0  0  0  0  0  0  0  0  0  0  0
   16.2190   -3.0950    2.6870 N   0  0  0  0  0  0  0  0  0  0  0  0
   19.1460   -3.4970    4.8800 N   0  0  0  0  0  0  0  0  0  0  0  0
   19.9890    0.6740    4.5950 O   0  0  0  0  0  0  0  0  0  0  0  0
   26.3640   -0.6470    5.3680 O   0  0  0  0  0  0  0  0  0  0  0  0
   15.3270   -0.6290    3.2550 S   0  0  0  0  0  0  0  0  0  0  0  0
  2  1  1  0
  3  2  1  0
  6  5  1  0
 10  9  1  0
 11 10  1  0
 15 13  1  0
 15  5  1  1
 16  6  1  0
 17  7  1  0
 17  8  1  0
 18  9  1  0
 18 12  1  1
 18  8  1  0
 19  7  1  0
 19  9  1  0
 20 18  1  0
 21  4  1  0
 21  1  1  6
 22 10  1  0
  4 23  1  1
 24 16  1  0
 25 24  1  0
 25 15  1  0
 26 21  1  0
 26 14  1  1
 26  3  1  0
 13 27  1  1
 28 20  1  0
 28 13  1  0
 29 11  1  0
 30 22  1  0
 31 27  1  0
 31 20  1  0
 32  4  1  0
 32  6  1  0
 33 19  1  0
 33 11  1  0
M  CHG  1  26   1
M  END
$$$$

     RDKit          3D

 41 48  0  0  0  0  0  0  0  0999 V2000
   22.4120   -3.7230    9.1060 C   0  0  0  0  0  0  0  0  0  0  0  0
   21.9710   -2.6480    6.3500 C   0  0  0  0  0  0  0  0  0  0  0  0
   20.6580   -1.4780    4.8120 C   0  0  1  0  0  0  0  0  0  0  0  0
   18.2350   -1.9320    4.4770 C   0  0  0  0  0  0  0  0  0  0  0  0
   15.8360   -1.6720    3.0720 C   0  0  0  0  0  0  0  0  0  0  0  0
   16.5430   -2.8420    3.0280 C   0  0  0  0  0  0  0  0  0  0  0  0
   17.7410   -2.9630    3.7240 C   0  0  0  0  0  0  0  0  0  0  0  0
   15.9670    1.6630    4.6790 C   0  0  0  0  0  0  0  0  0  0  0  0
   17.9420    0.4090    5.3230 C   0  0  0  0  0  0  0  0  0  0  0  0
   29.2520   -1.6440    3.9320 C   0  0  0  0  0  0  0  0  0  0  0  0
   29.9980   -0.6430    4.8150 C   0  0  2  0  0  0  0  0  0  0  0  0
   28.8740   -0.2070    5.7480 C   0  0  0  0  0  0  0  0  0  0  0  0
   27.5990   -0.2390    4.8770 C   0  0  1  0  0  0  0  0  0  0  0  0
   26.4880   -0.8210    5.7240 C   0  0  0  0  0  0  0  0  0  0  0  0
   24.1230   -1.2950    5.5530 C   0  0  0  0  0  0  0  0  0  0  0  0
   23.2470   -2.8510    6.9330 C   0  0  1  0  0  0  0  0  0  0  0  0
   24.7990   -4.1520    8.4100 C   0  0  0  0  0  0  0  0  0  0  0  0
   25.2070   -3.5220    9.7830 C   0  0  1  0  0  0  0  0  0  0  0  0
   23.0320   -3.1740   10.4390 C   0  0  2  0  0  0  0  0  0  0  0  0
   23.5830   -1.7450   10.3440 C   0  0  0  0  0  0  0  0  0  0  0  0
   25.0180   -1.9840    9.8770 C   0  0  0  0  0  0  0  0  0  0  0  0
   21.9000   -1.6680    5.3690 C   0  0  2  0  0  0  0  0  0  0  0  0
   19.5180   -2.1660    5.1420 C   0  0  1  0  0  0  0  0  0  0  0  0
   17.5060   -0.6990    4.5810 C   0  0  0  0  0  0  0  0  0  0  0  0
   16.3010   -0.5960    3.8710 C   0  0  0  0  0  0  0  0  0  0  0  0
   15.5430    0.6040    3.9210 C   0  0  0  0  0  0  0  0  0  0  0  0
   17.1660    1.5700    5.4180 C   0  0  0  0  0  0  0  0  0  0  0  0
   20.7930   -3.3300    6.6260 C   0  0  0  0  0  0  0  0  0  0  0  0
   27.7580   -0.2550    2.4490 C   0  0  0  0  0  0  0  0  0  0  0  0
   26.8140    0.8410    2.8580 C   0  0  0  0  0  0  0  0  0  0  0  0
   27.2430    1.1170    4.3190 C   0  0  0  0  0  0  0  0  0  0  0  0
   30.3900    0.4830    4.0990 F   0  0  0  0  0  0  0  0  0  0  0  0
   20.5290   -0.4560    3.8840 F   0  0  0  0  0  0  0  0  0  0  0  0
   24.3190   -2.1870    6.5340 N   0  0  0  0  0  0  0  0  0  0  0  0
   23.4370   -3.6540    8.0160 N   0  0  0  0  0  0  0  0  0  0  0  0
   24.2040   -3.9620   10.7730 N   0  0  0  0  0  0  0  0  0  0  0  0
   19.6240   -3.1580    6.0530 N   0  0  0  0  0  0  0  0  0  0  0  0
   23.0180   -0.9880    4.9430 N   0  0  0  0  0  0  0  0  0  0  0  0
   27.8930   -1.0580    3.6760 N   0  0  0  0  0  0  0  0  0  0  0  0
   25.2130   -0.6640    5.0740 O   0  0  0  0  0  0  0  0  0  0  0  0
   16.1020   -3.9120    2.3000 O   0  0  0  0  0  0  0  0  0  0  0  0
  6  5  1  0
  7  6  1  0
  7  4  1  0
 11 10  1  0
 12 11  1  0
 13 12  1  0
 13 14  1  1
 16  2  1  0
 18 17  1  6
 19  1  1  6
 20 19  1  0
 21 20  1  0
 21 18  1  0
 22  3  1  0
 22  2  1  0
 23  4  1  6
 23  3  1  0
 24  9  1  0
 24  4  1  0
 25  5  1  0
 25 24  1  0
 26 25  1  0
 26  8  1  0
 27  8  1  0
 27  9  1  0
 28  2  1  0
 30 29  1  0
 31 30  1  0
 31 13  1  0
 11 32  1  6
  3 33  1  1
 34 16  1  0
 34 15  1  0
 35 17  1  0
 16 35  1  1
 35  1  1  0
 36 19  1  0
 36 18  1  0
 37 23  1  0
 37 28  1  0
 22 38  1  6
 38 15  1  0
 39 29  1  0
 39 13  1  0
 39 10  1  0
 40 15  1  0
 40 14  1  0
 41  6  1  0
M  END
$$$$

     RDKit          3D

 42 49  0  0  0  0  0  0  0  0999 V2000
   17.5640    1.3900    6.2640 C   0  0  0  0  0  0  0  0  0  0  0  0
   16.4330    2.0750    5.8110 C   0  0  0  0  0  0  0  0  0  0  0  0
   20.2280   -2.1720    7.7020 C   0  0  0  0  0  0  0  0  0  0  0  0
   21.4750   -1.8080    7.1570 C   0  0  0  0  0  0  0  0  0  0  0  0
   17.8930    0.1230    5.7710 C   0  0  0  0  0  0  0  0  0  0  0  0
   19.0810   -0.5700    6.2720 C   0  0  0  0  0  0  0  0  0  0  0  0
   21.5130   -0.8160    6.1510 C   0  0  0  0  0  0  0  0  0  0  0  0
   17.0690   -0.4630    4.7760 C   0  0  0  0  0  0  0  0  0  0  0  0
   15.6200    1.5020    4.8280 C   0  0  0  0  0  0  0  0  0  0  0  0
   20.3170   -0.2350    5.7170 C   0  0  0  0  0  0  0  0  0  0  0  0
   15.9550    0.2490    4.3080 C   0  0  0  0  0  0  0  0  0  0  0  0
   19.0670   -1.5420    7.2650 C   0  0  0  0  0  0  0  0  0  0  0  0
   22.7200   -2.3370    7.5390 C   0  0  0  0  0  0  0  0  0  0  0  0
   23.7790   -1.0670    5.9530 C   0  0  2  0  0  0  0  0  0  0  0  0
   16.2860   -1.9260    3.2840 C   0  0  0  0  0  0  0  0  0  0  0  0
   28.6090   -2.4700    4.1500 C   0  0  0  0  0  0  0  0  0  0  0  0
   23.9700   -1.7130   10.9080 C   0  0  0  0  0  0  0  0  0  0  0  0
   25.1830   -2.2330   10.1230 C   0  0  0  0  0  0  0  0  0  0  0  0
   28.5590   -1.2850    5.1020 C   0  0  0  0  0  0  0  0  0  0  0  0
   27.2450    0.8990    4.7230 C   0  0  0  0  0  0  0  0  0  0  0  0
   22.1190   -3.1300    9.8340 C   0  0  0  0  0  0  0  0  0  0  0  0
   24.1620   -4.0450    8.6370 C   0  0  0  0  0  0  0  0  0  0  0  0
   27.9460   -1.9680    2.8820 C   0  0  0  0  0  0  0  0  0  0  0  0
   26.5470    0.1410    2.5740 C   0  0  0  0  0  0  0  0  0  0  0  0
   23.0300   -2.9140   11.0570 C   0  0  1  0  0  0  0  0  0  0  0  0
   24.9510   -3.7310    9.9290 C   0  0  2  0  0  0  0  0  0  0  0  0
   27.3550    1.2230    3.2520 C   0  0  2  0  0  0  0  0  0  0  0  0
   27.2000   -0.6290    4.8030 C   0  0  2  0  0  0  0  0  0  0  0  0
   26.1560   -1.1390    5.7670 C   0  0  0  0  0  0  0  0  0  0  0  0
   22.6600   -0.4270    5.5660 N   0  0  0  0  0  0  0  0  0  0  0  0
   17.2150   -1.7120    4.1880 N   0  0  0  0  0  0  0  0  0  0  0  0
   23.8650   -1.9850    6.9210 N   0  0  0  0  0  0  0  0  0  0  0  0
   22.8910   -3.2920    8.5870 N   0  0  0  0  0  0  0  0  0  0  0  0
   16.2090   -3.0730    2.5710 N   0  0  0  0  0  0  0  0  0  0  0  0
   24.0190   -4.0500   11.0750 N   0  0  0  0  0  0  0  0  0  0  0  0
   26.7980   -1.1110    3.3990 N   0  0  0  0  0  0  0  0  0  0  0  0
   24.9100   -0.6140    5.2990 O   0  0  0  0  0  0  0  0  0  0  0  0
   14.5530    2.1580    4.3450 F   0  0  0  0  0  0  0  0  0  0  0  0
   20.3750    0.7010    4.7600 F   0  0  0  0  0  0  0  0  0  0  0  0
   28.6560    1.1320    2.8320 F   0  0  0  0  0  0  0  0  0  0  0  0
   15.1490   -0.6480    3.0800 S   0  0  0  0  0  0  0  0  0  0  0  0
   17.5510   -1.9920    7.9120 Cl  0  0  0  0  0  0  0  0  0  0  0  0
  2  1  1  0
  4  3  1  0
  5  1  1  0
  6  5  1  0
  7  4  1  0
  8  5  1  0
  9  2  1  0
 10  7  1  0
 10  6  1  0
 11  9  1  0
 11  8  1  0
 12  6  1  0
 12  3  1  0
 13  4  1  0
 18 17  1  0
 19 16  1  0
 23 16  1  0
 25 21  1  6
 25 17  1  0
 26 22  1  6
 26 18  1  0
 27 24  1  0
 27 20  1  0
 28 20  1  0
 28 19  1  0
 28 29  1  1
 30  7  1  0
 30 14  1  0
 31 15  1  0
 31  8  1  0
 32 14  1  0
 32 13  1  0
 33 22  1  0
 33 21  1  0
 33 13  1  0
 34 15  1  0
 35 26  1  0
 35 25  1  0
 36 28  1  0
 36 24  1  0
 36 23  1  0
 37 29  1  0
 14 37  1  1
 38  9  1  0
 39 10  1  0
 27 40  1  6
 41 15  1  0
 41 11  1  0
 42 12  1  0
M  END
$$$$

     RDKit          3D

 43 48  0  0  0  0  0  0  0  0999 V2000
   23.6410   -2.1280    6.9630 N   0  0  0  0  0  0  0  0  0  0  0  0
   24.0920   -4.4070   10.4160 C   0  0  0  0  0  0  0  0  0  0  0  0
   24.0910   -3.5800    9.1170 C   0  0  0  0  0  0  0  0  0  0  0  0
   23.7280   -3.4910   12.7530 C   0  0  0  0  0  0  0  0  0  0  0  0
   21.6810   -3.2810    9.6520 C   0  0  0  0  0  0  0  0  0  0  0  0
   22.3100   -2.7180   10.9270 C   0  0  1  0  0  0  0  0  0  0  0  0
   22.4390   -1.0150    5.2600 N   0  0  0  0  0  0  0  0  0  0  0  0
   20.0210   -1.2730    4.9830 C   0  0  0  0  0  0  0  0  0  0  0  0
   19.1330   -3.2840    5.9990 C   0  0  0  0  0  0  0  0  0  0  0  0
   16.2610   -2.2010    3.0350 C   0  0  0  0  0  0  0  0  0  0  0  0
   20.0080   -3.0570    7.2580 C   0  0  0  0  0  0  0  0  0  0  0  0
   22.5410   -2.6780    7.4770 C   0  0  1  0  0  0  0  0  0  0  0  0
   21.3090   -2.4350    6.8410 C   0  0  0  0  0  0  0  0  0  0  0  0
   23.5860   -1.3310    5.8810 C   0  0  0  0  0  0  0  0  0  0  0  0
   24.6690   -4.5370   13.3670 C   0  0  2  0  0  0  0  0  0  0  0  0
   17.7120   -1.5300    4.8370 C   0  0  1  0  0  0  0  0  0  0  0  0
   17.3290   -2.4730    3.8830 C   0  0  0  0  0  0  0  0  0  0  0  0
   21.3060   -1.5700    5.7150 C   0  0  0  0  0  0  0  0  0  0  0  0
   18.8520   -1.8690    5.6590 N   0  0  0  0  0  0  0  0  0  0  0  0
   22.6980   -3.5600    8.6200 N   0  0  0  0  0  0  0  0  0  0  0  0
   23.3750   -3.6060   11.4490 N   0  0  0  0  0  0  0  0  0  0  0  0
   23.2900   -2.5800   13.4840 O   0  0  0  0  0  0  0  0  0  0  0  0
   15.5860   -0.9820    3.1060 C   0  0  0  0  0  0  0  0  0  0  0  0
   15.9670   -0.0260    4.0470 C   0  0  0  0  0  0  0  0  0  0  0  0
   17.0380   -0.2810    4.9290 C   0  0  0  0  0  0  0  0  0  0  0  0
   15.2220    1.1430    4.0460 C   0  0  0  0  0  0  0  0  0  0  0  0
   15.5430    2.1560    4.9560 C   0  0  0  0  0  0  0  0  0  0  0  0
   16.6030    1.9520    5.8510 C   0  0  0  0  0  0  0  0  0  0  0  0
   17.3300    0.7460    5.8390 C   0  0  0  0  0  0  0  0  0  0  0  0
   24.7560   -0.7650    5.4040 O   0  0  0  0  0  0  0  0  0  0  0  0
   25.9220   -1.1640    6.0610 C   0  0  0  0  0  0  0  0  0  0  0  0
   27.0680   -0.3900    5.4070 C   0  0  1  0  0  0  0  0  0  0  0  0
   27.0850   -0.8280    3.9390 N   0  0  0  0  0  0  0  0  0  0  0  0
   26.8010    0.3560    3.0270 C   0  0  0  0  0  0  0  0  0  0  0  0
   26.9180    1.5650    3.9270 C   0  0  0  0  0  0  0  0  0  0  0  0
   26.7440    1.0950    5.3520 C   0  0  0  0  0  0  0  0  0  0  0  0
   28.4530   -1.3610    3.5550 C   0  0  0  0  0  0  0  0  0  0  0  0
   22.8650   -1.2910   10.8310 C   0  0  0  0  0  0  0  0  0  0  0  0
   25.9620   -3.9270   13.8940 C   0  0  0  0  0  0  0  0  0  0  0  0
   21.7100   -0.3240   10.5970 C   0  0  0  0  0  0  0  0  0  0  0  0
   20.7660    0.3300   10.4510 N   0  0  0  0  0  0  0  0  0  0  0  0
   18.5570    0.7110    7.0690 Cl  0  0  0  0  0  0  0  0  0  0  0  0
   24.8340   -5.6630   12.6770 F   0  0  0  0  0  0  0  0  0  0  0  0
  3  2  1  0
  6  5  1  0
 11  9  1  0
 12  1  1  0
 13 11  1  0
 13 12  1  0
 14  7  1  0
 14  1  1  0
 15  4  1  0
 17 10  1  0
 17 16  1  0
 18  8  1  0
 18 13  1  0
 18  7  1  0
 16 19  1  6
 19  8  1  0
 19  9  1  0
 20  5  1  0
 12 20  1  6
 20  3  1  0
 21  2  1  0
 21  6  1  0
 21  4  1  0
 22  4  1  0
 23 10  1  0
 24 23  1  0
 25 24  1  0
 25 16  1  0
 26 24  1  0
 27 26  1  0
 28 27  1  0
 29 25  1  0
 29 28  1  0
 30 14  1  0
 31 30  1  0
 32 31  1  1
 33 32  1  0
 34 33  1  0
 35 34  1  0
 36 35  1  0
 36 32  1  0
 37 33  1  0
  6 38  1  6
 15 39  1  6
 40 38  1  0
 41 40  1  0
 42 29  1  0
 43 15  1  0
M  END
$$$$

     RDKit          3D

 24 25  0  0  0  0  0  0  0  0999 V2000
   14.9260   -0.4080    8.1670 Cl  0  0  0  0  0  0  0  0  0  0  0  0
   18.4300    2.7100    5.7490 Cl  0  0  0  0  0  0  0  0  0  0  0  0
   16.5510    0.0610    7.9010 C   0  0  0  0  0  0  0  0  0  0  0  0
   17.5710   -0.6020    8.5680 C   0  0  0  0  0  0  0  0  0  0  0  0
   18.8910   -0.2200    8.3470 C   0  0  0  0  0  0  0  0  0  0  0  0
   19.1930    0.8240    7.4610 C   0  0  0  0  0  0  0  0  0  0  0  0
   20.4880    1.2120    7.2370 O   0  0  0  0  0  0  0  0  0  0  0  0
   21.5320    0.7760    8.0770 C   0  0  0  0  0  0  0  0  0  0  0  0
   22.0540   -0.5800    7.5750 C   0  0  0  0  0  0  0  0  0  0  0  0
   23.1940   -1.1490    8.1820 N   0  0  0  0  0  0  0  0  0  0  0  0
   23.9240   -0.5050    9.3030 C   0  0  0  0  0  0  0  0  0  0  0  0
   23.8950   -1.4030   10.5440 C   0  0  0  0  0  0  0  0  0  0  0  0
   24.3790   -2.8450   10.3080 C   0  0  1  0  0  0  0  0  0  0  0  0
   24.1150   -3.6700   11.4790 C   0  0  0  0  0  0  0  0  0  0  0  0
   25.1470   -4.4150   12.0130 N   0  0  0  0  0  0  0  0  0  0  0  0
   24.9280   -5.2610   13.1970 C   0  0  0  0  0  0  0  0  0  0  0  0
   26.1910   -5.4430   14.0200 C   0  0  0  0  0  0  0  0  0  0  0  0
   26.2980   -4.0450   15.1830 S   0  0  0  0  0  0  0  0  0  0  0  0
   23.0090   -3.7070   12.0100 O   0  0  0  0  0  0  0  0  0  0  0  0
   23.7100   -3.3790    9.0360 C   0  0  0  0  0  0  0  0  0  0  0  0
   23.8000   -2.4300    7.8410 C   0  0  0  0  0  0  0  0  0  0  0  0
   21.5030   -1.1670    6.6490 O   0  0  0  0  0  0  0  0  0  0  0  0
   18.1330    1.4410    6.8190 C   0  0  0  0  0  0  0  0  0  0  0  0
   16.8170    1.0760    7.0090 C   0  0  0  0  0  0  0  0  0  0  0  0
  3  1  1  0
  4  3  1  0
  5  4  1  0
  6  5  1  0
  7  6  1  0
  8  7  1  0
  9  8  1  0
 10  9  1  0
 11 10  1  0
 12 11  1  0
 13 12  1  0
 13 14  1  1
 15 14  1  0
 16 15  1  0
 17 16  1  0
 18 17  1  0
 19 14  1  0
 20 13  1  0
 21 20  1  0
 21 10  1  0
 22  9  1  0
 23  6  1  0
 23  2  1  0
 24 23  1  0
 24  3  1  0
M  END
$$$$

     RDKit          3D

 28 31  0  0  0  0  0  0  0  0999 V2000
   19.2800   -0.7180    6.1060 C   0  0  2  0  0  0  0  0  0  0  0  0
   17.2510   -0.9700    4.6950 C   0  0  0  0  0  0  0  0  0  0  0  0
   15.6410    0.8180    4.4510 C   0  0  0  0  0  0  0  0  0  0  0  0
   19.3640   -1.1940    7.4100 C   0  0  0  0  0  0  0  0  0  0  0  0
   20.5190   -1.6540    7.9220 C   0  0  0  0  0  0  0  0  0  0  0  0
   24.8000   -3.7050   10.4230 C   0  0  0  0  0  0  0  0  0  0  0  0
   26.4340   -4.0870   14.0460 C   0  0  0  0  0  0  0  0  0  0  0  0
   23.8820   -2.3590   13.7170 O   0  0  0  0  0  0  0  0  0  0  0  0
   24.3500   -3.1390   12.8980 C   0  0  0  0  0  0  0  0  0  0  0  0
   24.2260   -2.9270   11.5640 N   0  0  0  0  0  0  0  0  0  0  0  0
   23.6060   -1.6740   11.1460 C   0  0  0  0  0  0  0  0  0  0  0  0
   22.5620   -1.9260   10.1050 C   0  0  0  0  0  0  0  0  0  0  0  0
   23.1420   -2.5850    8.9610 N   0  0  0  0  0  0  0  0  0  0  0  0
   22.9940   -2.1070    7.6740 C   0  0  0  0  0  0  0  0  0  0  0  0
   24.1170   -2.0650    6.9000 N   0  0  0  0  0  0  0  0  0  0  0  0
   23.9060   -1.5530    5.6610 C   0  0  0  0  0  0  0  0  0  0  0  0
   22.7870   -1.0940    5.0970 N   0  0  0  0  0  0  0  0  0  0  0  0
   21.6770   -1.1440    5.8780 C   0  0  0  0  0  0  0  0  0  0  0  0
   20.4360   -0.6690    5.3340 C   0  0  0  0  0  0  0  0  0  0  0  0
   18.0430   -0.1720    5.5340 C   0  0  1  0  0  0  0  0  0  0  0  0
   16.0700   -0.4670    4.1550 C   0  0  0  0  0  0  0  0  0  0  0  0
   16.3990    1.6300    5.3100 C   0  0  0  0  0  0  0  0  0  0  0  0
   17.5640    1.1100    5.8330 C   0  0  0  0  0  0  0  0  0  0  0  0
   18.3100    1.8700    6.6770 F   0  0  0  0  0  0  0  0  0  0  0  0
   21.7150   -1.6410    7.1870 C   0  0  0  0  0  0  0  0  0  0  0  0
   17.9440   -1.2420    8.4100 Cl  0  0  0  0  0  0  0  0  0  0  0  0
   23.7980   -3.8440    9.2610 C   0  0  0  0  0  0  0  0  0  0  0  0
   25.0740   -4.3990   13.3480 C   0  0  0  0  0  0  0  0  0  0  0  0
  4  1  1  0
  5  4  1  0
  9  8  1  0
 10  6  1  0
 10  9  1  0
 11 10  1  0
 12 11  1  0
 13 12  1  0
 14 13  1  0
 15 14  1  0
 16 15  1  0
 17 16  1  0
 18 17  1  0
 19 18  1  0
  1 19  1  1
 20  2  1  1
 20  1  1  0
 21  3  1  0
 21  2  1  0
 22  3  1  0
 23 22  1  0
 23 20  1  0
 24 23  1  0
 25 18  1  0
 25  5  1  0
 25 14  1  0
 26  4  1  0
 27 13  1  0
 27  6  1  0
 28  9  1  0
 28  7  1  0
M  END
$$$$

     RDKit          3D

 44 49  0  0  0  0  0  0  0  0999 V2000
   24.2630   -2.7240   11.5920 N   0  0  0  0  0  0  0  0  0  0  0  0
   19.0250   -1.1720    5.9020 C   0  0  1  0  0  0  0  0  0  0  0  0
   20.2110   -0.8180    5.3110 C   0  0  0  0  0  0  0  0  0  0  0  0
   23.1220   -2.4190    9.0420 N   0  0  0  0  0  0  0  0  0  0  0  0
   21.4600   -1.0110    5.9490 C   0  0  2  0  0  0  0  0  0  0  0  0
   24.8590   -0.8210    5.1540 O   0  0  0  0  0  0  0  0  0  0  0  0
   15.8560    0.1840    4.2420 C   0  0  0  0  0  0  0  0  0  0  0  0
   17.0100    0.1590    5.0600 C   0  0  0  0  0  0  0  0  0  0  0  0
   17.3980    1.4020    5.8360 C   0  0  1  0  0  0  0  0  0  0  0  0
   23.8690   -1.5600    7.0530 N   0  0  0  0  0  0  0  0  0  0  0  0
   17.7440   -1.0530    5.1510 C   0  0  1  0  0  0  0  0  0  0  0  0
   16.2670   -2.1700    3.7600 C   0  0  0  0  0  0  0  0  0  0  0  0
   15.4980   -1.0040    3.6050 C   0  0  0  0  0  0  0  0  0  0  0  0
   22.5940   -0.6870    5.2510 N   0  0  0  0  0  0  0  0  0  0  0  0
   17.3830   -2.1850    4.5240 N   0  0  0  0  0  0  0  0  0  0  0  0
   14.9770    1.4120    4.0320 C   0  0  0  0  0  0  0  0  0  0  0  0
   20.1300   -2.3890    9.1300 O   0  0  0  0  0  0  0  0  0  0  0  0
   21.5010   -1.5840    7.2570 C   0  0  0  0  0  0  0  0  0  0  0  0
   20.2490   -1.8980    7.8560 C   0  0  0  0  0  0  0  0  0  0  0  0
   19.0670   -1.6980    7.1930 C   0  0  0  0  0  0  0  0  0  0  0  0
   20.9920   -1.8480   10.1370 C   0  0  0  0  0  0  0  0  0  0  0  0
   22.2560   -2.6030   10.2010 C   0  0  2  0  0  0  0  0  0  0  0  0
   22.9680   -2.0640   11.4250 C   0  0  0  0  0  0  0  0  0  0  0  0
   25.1070   -2.7770   10.3930 C   0  0  0  0  0  0  0  0  0  0  0  0
   24.3050   -3.2570    9.1980 C   0  0  0  0  0  0  0  0  0  0  0  0
   22.8120   -1.8270    7.8040 C   0  0  1  0  0  0  0  0  0  0  0  0
   23.7320   -1.0100    5.8570 C   0  0  2  0  0  0  0  0  0  0  0  0
   26.1120   -1.2300    5.7470 C   0  0  0  0  0  0  0  0  0  0  0  0
   27.2290   -0.7880    4.8220 C   0  0  2  0  0  0  0  0  0  0  0  0
   27.6050    0.6750    5.0110 C   0  0  0  0  0  0  0  0  0  0  0  0
   27.4340    1.3520    3.7150 C   0  0  2  0  0  0  0  0  0  0  0  0
   27.0580    0.3590    2.7410 C   0  0  0  0  0  0  0  0  0  0  0  0
   27.5510   -2.0150    2.7590 C   0  0  0  0  0  0  0  0  0  0  0  0
   24.6570   -3.1520   12.8110 C   0  0  0  0  0  0  0  0  0  0  0  0
   25.9970   -3.7940   12.9130 C   0  0  0  0  0  0  0  0  0  0  0  0
   26.2270   -4.7830   13.6500 C   0  0  0  0  0  0  0  0  0  0  0  0
   18.1610    1.1680    6.9130 F   0  0  0  0  0  0  0  0  0  0  0  0
   18.0860    2.2710    5.0850 F   0  0  0  0  0  0  0  0  0  0  0  0
   16.3400    2.0550    6.3190 F   0  0  0  0  0  0  0  0  0  0  0  0
   28.6940    1.8410    3.3100 F   0  0  0  0  0  0  0  0  0  0  0  0
   26.8390   -0.9220    3.4100 N   0  0  0  0  0  0  0  0  0  0  0  0
   15.9400   -3.3420    3.1480 N   0  0  0  0  0  0  0  0  0  0  0  0
   23.9520   -3.0060   13.8050 O   0  0  0  0  0  0  0  0  0  0  0  0
   17.5990   -2.0920    8.0050 Cl  0  0  0  0  0  0  0  0  0  0  0  0
  2  3  1  6
  5  3  1  6
  8  7  1  0
  9  8  1  0
 11  8  1  0
 11  2  1  0
 13 12  1  0
 13  7  1  0
 14  5  1  0
 15 12  1  0
 11 15  1  6
 16  7  1  0
 18  5  1  0
 19 18  1  0
 19 17  1  0
 20 19  1  0
 20  2  1  0
 21 17  1  0
 22 21  1  6
 22  4  1  0
 23 22  1  0
 23  1  1  0
 24  1  1  0
 25 24  1  0
 25  4  1  0
 26 18  1  0
 26 10  1  6
 26  4  1  0
 27 14  1  0
 27  6  1  6
 27 10  1  0
 28  6  1  0
 29 28  1  1
 30 29  1  0
 31 30  1  0
 32 31  1  0
 34  1  1  0
 35 34  1  0
 36 35  1  0
  9 37  1  1
 38  9  1  0
 39  9  1  0
 31 40  1  6
 41 32  1  0
 41 29  1  0
 41 33  1  0
 42 12  1  0
 43 34  1  0
 44 20  1  0
M  END
$$$$

     RDKit          3D

 33 37  0  0  0  0  0  0  0  0999 V2000
   15.7590    0.5130    3.4920 C   0  0  0  0  0  0  0  0  0  0  0  0
   18.0620    1.8790    6.1990 C   0  0  0  0  0  0  0  0  0  0  0  0
   21.3620   -2.8400    9.0180 C   0  0  0  0  0  0  0  0  0  0  0  0
   23.5420   -1.3930    9.0450 C   0  0  0  0  0  0  0  0  0  0  0  0
   27.6830   -3.2820   11.0500 C   0  0  0  0  0  0  0  0  0  0  0  0
   20.7590    0.2490    4.7900 Cl  0  0  0  0  0  0  0  0  0  0  0  0
   20.1570   -0.8000    6.0880 C   0  0  0  0  0  0  0  0  0  0  0  0
   18.7970   -1.0450    6.1720 C   0  0  0  0  0  0  0  0  0  0  0  0
   17.7440   -0.4650    5.2150 C   0  0  1  0  0  0  0  0  0  0  0  0
   17.0790   -1.3430    4.3230 C   0  0  0  0  0  0  0  0  0  0  0  0
   17.1830   -2.7530    4.0320 C   0  0  0  0  0  0  0  0  0  0  0  0
   16.3180   -3.0410    3.0720 N   0  0  0  0  0  0  0  0  0  0  0  0
   15.6780   -1.9010    2.7280 N   0  0  0  0  0  0  0  0  0  0  0  0
   16.1080   -0.8560    3.4630 C   0  0  0  0  0  0  0  0  0  0  0  0
   16.3960    1.3710    4.3790 C   0  0  0  0  0  0  0  0  0  0  0  0
   17.3920    0.8880    5.2430 C   0  0  0  0  0  0  0  0  0  0  0  0
   18.3310   -1.8670    7.1870 C   0  0  0  0  0  0  0  0  0  0  0  0
   17.0080   -2.1150    7.2830 F   0  0  0  0  0  0  0  0  0  0  0  0
   19.2090   -2.4570    8.1220 C   0  0  0  0  0  0  0  0  0  0  0  0
   18.7190   -3.2680    9.1200 N   0  0  0  0  0  0  0  0  0  0  0  0
   19.5440   -3.8370   10.0150 C   0  0  0  0  0  0  0  0  0  0  0  0
   20.8560   -3.6030    9.9490 N   0  0  0  0  0  0  0  0  0  0  0  0
   22.7940   -2.6880    9.0410 N   0  0  0  0  0  0  0  0  0  0  0  0
   25.0280   -1.5570    8.8050 C   0  0  0  0  0  0  0  0  0  0  0  0
   25.6720   -2.5000    9.6270 N   0  0  0  0  0  0  0  0  0  0  0  0
   26.9940   -2.2290   10.1670 C   0  0  0  0  0  0  0  0  0  0  0  0
   29.0750   -3.7420   10.6060 C   0  0  0  0  0  0  0  0  0  0  0  0
   29.8990   -2.6320   10.1790 N   0  0  0  0  0  0  0  0  0  0  0  0
   27.5070   -1.1890    9.9240 O   0  0  0  0  0  0  0  0  0  0  0  0
   24.9770   -3.7010    9.8870 C   0  0  0  0  0  0  0  0  0  0  0  0
   23.6700   -3.8980    9.1340 C   0  0  0  0  0  0  0  0  0  0  0  0
   20.5350   -2.2290    8.0500 C   0  0  0  0  0  0  0  0  0  0  0  0
   21.0360   -1.3730    7.0050 C   0  0  0  0  0  0  0  0  0  0  0  0
  7  6  1  0
  8  7  1  0
  9  8  1  1
 10  9  1  0
 11 10  1  0
 12 11  1  0
 13 12  1  0
 14 13  1  0
 14  1  1  0
 14 10  1  0
 15  1  1  0
 16 15  1  0
 16  9  1  0
 16  2  1  0
 17  8  1  0
 18 17  1  0
 19 17  1  0
 20 19  1  0
 21 20  1  0
 22 21  1  0
 22  3  1  0
 23  3  1  0
 23  4  1  0
 24  4  1  0
 25 24  1  0
 26 25  1  0
 26  5  1  0
 27  5  1  0
 28 27  1  0
 29 26  1  0
 30 25  1  0
 31 30  1  0
 31 23  1  0
 32 19  1  0
 32  3  1  0
 33 32  1  0
 33  7  1  0
M  END
$$$$

     RDKit          3D

 40 45  0  0  0  0  0  0  0  0999 V2000
   26.4200   -4.2490   14.4750 C   0  0  0  0  0  0  0  0  0  0  0  0
   24.9380   -4.4940   14.1470 C   0  0  0  0  0  0  0  0  0  0  0  0
   24.2210   -3.2210   13.6430 C   0  0  0  0  0  0  0  0  0  0  0  0
   23.7760   -2.4250   14.3950 O   0  0  0  0  0  0  0  0  0  0  0  0
   24.0940   -3.0020   12.2060 N   0  0  0  0  0  0  0  0  0  0  0  0
   24.5350   -3.7670   11.0010 C   0  0  0  0  0  0  0  0  0  0  0  0
   24.0140   -2.6710   10.1400 C   0  0  2  0  0  0  0  0  0  0  0  0
   23.4950   -1.9410   11.3320 C   0  0  0  0  0  0  0  0  0  0  0  0
   22.9620   -3.2500    9.2930 N   0  0  0  0  0  0  0  0  0  0  0  0
   22.4370   -2.5080    8.1470 C   0  0  0  0  0  0  0  0  0  0  0  0
   22.8560   -1.4160    7.9100 O   0  0  0  0  0  0  0  0  0  0  0  0
   21.3310   -3.1620    7.2670 C   0  0  0  0  0  0  0  0  0  0  0  0
   20.9450   -2.1530    6.2680 N   0  0  0  0  0  0  0  0  0  0  0  0
   21.4610   -2.0740    5.0250 C   0  0  0  0  0  0  0  0  0  0  0  0
   22.5280   -3.0020    4.3840 C   0  0  2  0  0  0  0  0  0  0  0  0
   23.9650   -2.7650    4.8750 C   0  0  0  0  0  0  0  0  0  0  0  0
   23.6880   -2.9120    3.3800 C   0  0  0  0  0  0  0  0  0  0  0  0
   20.8560   -0.9800    4.3940 C   0  0  0  0  0  0  0  0  0  0  0  0
   21.0920   -0.4570    2.9340 C   0  0  0  0  0  0  0  0  0  0  0  0
   20.6530   -1.0630    2.0110 O   0  0  0  0  0  0  0  0  0  0  0  0
   21.8200    0.8200    2.7360 N   0  0  0  0  0  0  0  0  0  0  0  0
   22.0910    1.3550    1.4010 C   0  0  0  0  0  0  0  0  0  0  0  0
   23.6070    1.1490    1.1210 C   0  0  0  0  0  0  0  0  0  0  0  0
   24.4660    1.5120    2.3790 C   0  0  0  0  0  0  0  0  0  0  0  0
   25.8860    1.6540    2.1930 C   0  0  0  0  0  0  0  0  0  0  0  0
   26.4350    1.4390    0.8990 O   0  0  0  0  0  0  0  0  0  0  0  0
   27.6200    2.1540    0.5670 C   0  0  0  0  0  0  0  0  0  0  0  0
   26.6960    1.9810    3.2940 C   0  0  0  0  0  0  0  0  0  0  0  0
   26.1260    2.1880    4.5630 C   0  0  0  0  0  0  0  0  0  0  0  0
   24.7410    2.0590    4.7420 C   0  0  0  0  0  0  0  0  0  0  0  0
   23.9050    1.7180    3.6250 C   0  0  0  0  0  0  0  0  0  0  0  0
   22.3880    1.5810    3.8240 C   0  0  0  0  0  0  0  0  0  0  0  0
   19.9420   -0.3880    5.3390 C   0  0  0  0  0  0  0  0  0  0  0  0
   19.0670    0.7370    5.2340 C   0  0  0  0  0  0  0  0  0  0  0  0
   18.2830    1.0660    6.3550 C   0  0  0  0  0  0  0  0  0  0  0  0
   17.2060    2.4700    6.2680 Cl  0  0  0  0  0  0  0  0  0  0  0  0
   18.3500    0.3160    7.5450 C   0  0  0  0  0  0  0  0  0  0  0  0
   19.2090   -0.7890    7.6370 C   0  0  0  0  0  0  0  0  0  0  0  0
   19.2460   -1.5830    8.9590 C   0  0  0  0  0  0  0  0  0  0  0  0
   20.0180   -1.1380    6.4880 C   0  0  0  0  0  0  0  0  0  0  0  0
  2  1  1  0
  3  2  1  0
  4  3  1  0
  5  3  1  0
  6  5  1  0
  7  6  1  0
  8  7  1  0
  8  5  1  0
  7  9  1  6
 10  9  1  0
 11 10  1  0
 12 10  1  0
 13 12  1  0
 14 13  1  0
 15 14  1  6
 16 15  1  0
 17 16  1  0
 17 15  1  0
 18 14  1  0
 19 18  1  0
 20 19  1  0
 21 19  1  0
 22 21  1  0
 23 22  1  0
 24 23  1  0
 25 24  1  0
 26 25  1  0
 27 26  1  0
 28 25  1  0
 29 28  1  0
 30 29  1  0
 31 30  1  0
 31 24  1  0
 32 31  1  0
 32 21  1  0
 33 18  1  0
 34 33  1  0
 35 34  1  0
 36 35  1  0
 37 35  1  0
 38 37  1  0
 39 38  1  0
 40 33  1  0
 40 38  1  0
 40 13  1  0
M  END
$$$$

     RDKit          3D

 29 32  0  0  0  0  0  0  0  0999 V2000
   16.4520   -0.8090    4.3690 C   0  0  0  0  0  0  0  0  0  0  0  0
   15.9450    0.4410    4.6490 C   0  0  0  0  0  0  0  0  0  0  0  0
   17.6300   -1.2280    4.9520 C   0  0  0  0  0  0  0  0  0  0  0  0
   16.6310    1.2650    5.5130 C   0  0  0  0  0  0  0  0  0  0  0  0
   20.7760   -1.9050    8.2070 C   0  0  0  0  0  0  0  0  0  0  0  0
   24.1410   -1.7760    6.0230 C   0  0  0  0  0  0  0  0  0  0  0  0
   21.9500   -1.8700    7.4780 C   0  0  0  0  0  0  0  0  0  0  0  0
   18.3260   -0.4140    5.8210 C   0  0  0  0  0  0  0  0  0  0  0  0
   19.5560   -0.9040    6.4070 C   0  0  0  0  0  0  0  0  0  0  0  0
   21.9320   -1.3470    6.1940 C   0  0  0  0  0  0  0  0  0  0  0  0
   17.8080    0.8370    6.0900 C   0  0  0  0  0  0  0  0  0  0  0  0
   20.7350   -0.8770    5.6890 C   0  0  0  0  0  0  0  0  0  0  0  0
   19.5930   -1.4300    7.6810 C   0  0  0  0  0  0  0  0  0  0  0  0
   23.1540   -2.3420    7.9920 C   0  0  0  0  0  0  0  0  0  0  0  0
   26.0790   -4.0380   14.8570 C   0  0  0  0  0  0  0  0  0  0  0  0
   25.1040   -4.3460   13.7490 C   0  0  0  0  0  0  0  0  0  0  0  0
   24.3320   -3.1540   13.3290 C   0  0  0  0  0  0  0  0  0  0  0  0
   22.6950   -1.9690   10.2980 C   0  0  0  0  0  0  0  0  0  0  0  0
   24.5670   -3.4120    9.6000 C   0  0  0  0  0  0  0  0  0  0  0  0
   23.6250   -1.7760   11.4710 C   0  0  0  0  0  0  0  0  0  0  0  0
   24.5970   -4.0050   10.9960 C   0  0  0  0  0  0  0  0  0  0  0  0
   23.0380   -1.2950    5.4450 N   0  0  0  0  0  0  0  0  0  0  0  0
   24.2660   -2.2950    7.2450 N   0  0  0  0  0  0  0  0  0  0  0  0
   23.2370   -2.8850    9.3000 N   0  0  0  0  0  0  0  0  0  0  0  0
   24.1460   -3.0310   11.9670 N   0  0  0  0  0  0  0  0  0  0  0  0
   23.9030   -2.3580   14.1550 O   0  0  0  0  0  0  0  0  0  0  0  0
   18.4420    1.6720    6.9260 F   0  0  0  0  0  0  0  0  0  0  0  0
   20.7220   -0.3650    4.4410 F   0  0  0  0  0  0  0  0  0  0  0  0
   18.1540   -1.5000    8.6380 Cl  0  0  0  0  0  0  0  0  0  0  0  0
  2  1  1  0
  3  1  1  0
  4  2  1  0
  7  5  1  0
  8  3  1  0
  9  8  1  0
 10  7  1  0
 11  8  1  0
 11  4  1  0
 12  9  1  0
 12 10  1  0
 13  9  1  0
 13  5  1  0
 14  7  1  0
 16 15  1  0
 17 16  1  0
 20 18  1  0
 21 19  1  0
 22 10  1  0
 22  6  1  0
 23 14  1  0
 23  6  1  0
 24 19  1  0
 24 18  1  0
 24 14  1  0
 25 21  1  0
 25 20  1  0
 25 17  1  0
 26 17  1  0
 27 11  1  0
 28 12  1  0
 29 13  1  0
M  END
$$$$

     RDKit          3D

 33 38  0  0  0  0  0  0  0  0999 V2000
   16.4690    0.5890    3.9680 C   0  0  0  0  0  0  0  0  0  0  0  0
   17.6370    0.5030    4.7650 C   0  0  0  0  0  0  0  0  0  0  0  0
   17.9620   -1.6980    3.9130 C   0  0  0  0  0  0  0  0  0  0  0  0
   18.4100   -0.6660    4.7540 C   0  0  2  0  0  0  0  0  0  0  0  0
   19.6190   -1.0440    6.9740 C   0  0  1  0  0  0  0  0  0  0  0  0
   20.9640   -1.2080    5.2170 C   0  0  2  0  0  0  0  0  0  0  0  0
   18.4250   -0.8350    7.8730 C   0  0  0  0  0  0  0  0  0  0  0  0
   21.4650   -1.1640    3.8030 C   0  0  1  0  0  0  0  0  0  0  0  0
   21.2660   -1.4750    8.7750 C   0  0  1  0  0  0  0  0  0  0  0  0
   21.1060   -2.8500    9.4900 C   0  0  0  0  0  0  0  0  0  0  0  0
   22.4330   -2.5160   10.2630 C   0  0  1  0  0  0  0  0  0  0  0  0
   22.7950   -1.5900    9.0590 C   0  0  0  0  0  0  0  0  0  0  0  0
   22.3590   -1.8290   11.6780 C   0  0  0  0  0  0  0  0  0  0  0  0
   23.3610   -3.7010   10.7450 C   0  0  0  0  0  0  0  0  0  0  0  0
   23.5400   -3.3670   13.2510 C   0  0  1  0  0  0  0  0  0  0  0  0
   24.2560   -4.6500   13.5110 C   0  0  0  0  0  0  0  0  0  0  0  0
   25.6620   -4.3330   14.0310 C   0  0  0  0  0  0  0  0  0  0  0  0
   22.4250    0.0530    3.6640 C   0  0  0  0  0  0  0  0  0  0  0  0
   23.0720    0.0360    2.2440 C   0  0  0  0  0  0  0  0  0  0  0  0
   16.8290   -1.6140    3.1260 C   0  0  2  0  0  0  0  0  0  0  0  0
   16.0370   -0.4670    3.1430 C   0  0  0  0  0  0  0  0  0  0  0  0
   18.4710   -3.0680    3.5670 C   0  0  0  0  0  0  0  0  0  0  0  0
   17.6390   -3.6170    2.7410 N   0  0  0  0  0  0  0  0  0  0  0  0
   18.0280    1.6760    5.6800 C   0  0  0  0  0  0  0  0  0  0  0  0
   16.6150   -2.7740    2.4560 N   0  0  0  0  0  0  0  0  0  0  0  0
   19.6100   -0.9100    5.6410 C   0  0  1  0  0  0  0  0  0  0  0  0
   20.8380   -1.3200    7.3800 N   0  0  0  0  0  0  0  0  0  0  0  0
   21.6510   -1.4030    6.2770 N   0  0  0  0  0  0  0  0  0  0  0  0
   23.1020   -3.0350   12.0000 N   0  0  0  0  0  0  0  0  0  0  0  0
   23.3120   -2.6490   14.2370 O   0  0  0  0  0  0  0  0  0  0  0  0
   23.7340   -1.3250    1.9160 C   0  0  0  0  0  0  0  0  0  0  0  0
   22.7220   -2.4790    2.0640 C   0  0  0  0  0  0  0  0  0  0  0  0
   22.2190   -2.4790    3.5380 C   0  0  0  0  0  0  0  0  0  0  0  0
  2  1  1  0
  4  3  1  0
  4  2  1  1
  5  7  1  1
  8  6  1  0
 10  9  1  0
 11 10  1  6
 12  9  1  0
 12 11  1  0
 13 11  1  0
 14 11  1  0
 16 15  1  0
 17 16  1  0
  8 18  1  1
 19 18  1  0
 20  3  1  0
 20 21  1  1
 21  1  1  0
 22  3  1  0
 23 22  1  0
 24  2  1  0
 25 23  1  0
 25 20  1  0
 26  6  1  0
 26  4  1  6
 26  5  1  0
  9 27  1  6
 27  5  1  0
  6 28  1  1
 28 27  1  0
 29 14  1  0
 29 15  1  0
 29 13  1  0
 15 30  1  1
 31 19  1  0
 32 31  1  0
 33  8  1  0
 33 32  1  0
M  END
$$$$

     RDKit          3D

 29 31  0  0  0  0  0  0  0  0999 V2000
   26.1890   -4.3080   14.4850 C   0  0  0  0  0  0  0  0  0  0  0  0
   24.8540   -4.5250   13.7760 C   0  0  0  0  0  0  0  0  0  0  0  0
   24.2010   -3.2100   13.3480 C   0  0  0  0  0  0  0  0  0  0  0  0
   23.6840   -2.5090   14.1520 O   0  0  0  0  0  0  0  0  0  0  0  0
   24.2110   -2.8080   11.9560 N   0  0  0  0  0  0  0  0  0  0  0  0
   24.7330   -3.3800   10.6790 C   0  0  0  0  0  0  0  0  0  0  0  0
   23.9370   -2.3760    9.9260 C   0  0  2  0  0  0  0  0  0  0  0  0
   23.6950   -1.6370   11.1890 C   0  0  0  0  0  0  0  0  0  0  0  0
   22.7050   -2.9200    9.3830 N   0  0  0  0  0  0  0  0  0  0  0  0
   22.3630   -2.7440    7.9800 C   0  0  0  0  0  0  0  0  0  0  0  0
   23.0910   -2.1540    7.2540 O   0  0  0  0  0  0  0  0  0  0  0  0
   21.0490   -3.3340    7.4580 C   0  0  0  0  0  0  0  0  0  0  0  0
   20.7650   -2.8160    6.1830 O   0  0  0  0  0  0  0  0  0  0  0  0
   20.0310   -1.6150    6.1490 C   0  0  0  0  0  0  0  0  0  0  0  0
   19.3910   -1.1290    7.2890 C   0  0  0  0  0  0  0  0  0  0  0  0
   18.6720    0.0580    7.2370 C   0  0  0  0  0  0  0  0  0  0  0  0
   18.5880    0.7560    6.0390 C   0  0  0  0  0  0  0  0  0  0  0  0
   17.5910    2.4140    5.9370 Br  0  0  0  0  0  0  0  0  0  0  0  0
   19.2220    0.2790    4.9030 C   0  0  0  0  0  0  0  0  0  0  0  0
   19.9410   -0.9080    4.9520 C   0  0  0  0  0  0  0  0  0  0  0  0
   20.5940   -1.3850    3.7440 N   0  0  0  0  0  0  0  0  0  0  0  0
   19.8050   -1.7730    2.5840 C   0  0  0  0  0  0  0  0  0  0  0  0
   18.6210   -1.7050    2.6110 O   0  0  0  0  0  0  0  0  0  0  0  0
   20.5010   -2.2610    1.3150 C   0  0  0  0  0  0  0  0  0  0  0  0
   19.9100   -2.4150    0.0740 C   0  0  0  0  0  0  0  0  0  0  0  0
   20.8910   -2.8680   -0.7900 C   0  0  0  0  0  0  0  0  0  0  0  0
   20.6950   -3.1780   -2.2710 C   0  0  0  0  0  0  0  0  0  0  0  0
   22.0160   -2.9830   -0.1050 N   0  0  0  0  0  0  0  0  0  0  0  0
   21.7910   -2.6140    1.1850 O   0  0  0  0  0  0  0  0  0  0  0  0
  2  1  1  0
  3  2  1  0
  4  3  1  0
  5  3  1  0
  6  5  1  0
  7  6  1  0
  8  7  1  0
  8  5  1  0
  7  9  1  1
 10  9  1  0
 11 10  1  0
 12 10  1  0
 13 12  1  0
 14 13  1  0
 15 14  1  0
 16 15  1  0
 17 16  1  0
 18 17  1  0
 19 17  1  0
 20 19  1  0
 20 14  1  0
 21 20  1  0
 22 21  1  0
 23 22  1  0
 24 22  1  0
 25 24  1  0
 26 25  1  0
 27 26  1  0
 28 26  1  0
 29 24  1  0
 29 28  1  0
M  END
$$$$
