5NP8
  PyMOL2.5          3D                             0

 23 25  0  0  0  0  0  0  0  0999 V2000
    5.7690   -0.5520   29.0450 C   0  0  0  0  0  0  0  0  0  0  0  0
    5.3410    3.1950   32.4240 C   0  0  0  0  0  0  0  0  0  0  0  0
    4.0320    8.8910   29.1410 C   0  0  0  0  0  0  0  0  0  0  0  0
    3.8790    8.4490   26.7990 C   0  0  0  0  0  0  0  0  0  0  0  0
    4.2670    7.5360   29.3440 C   0  0  0  0  0  0  0  0  0  0  0  0
    4.1740    7.1190   26.9890 C   0  0  0  0  0  0  0  0  0  0  0  0
    4.8040    4.2160   27.7230 C   0  0  0  0  0  0  0  0  0  0  0  0
    7.1180    0.3780   32.6710 C   0  0  0  0  0  0  0  0  0  0  0  0
    5.8460    0.2510   31.7780 C   0  0  0  0  0  0  0  0  0  0  0  0
    8.4320    0.7770   31.9490 C   0  0  0  0  0  0  0  0  0  0  0  0
    5.5310    0.9440   29.3310 C   0  0  0  0  0  0  0  0  0  0  0  0
    3.8050    9.3630   27.8900 C   0  0  0  0  0  0  0  0  0  0  0  0
    5.3310    2.6850   30.9610 C   0  0  0  0  0  0  0  0  0  0  0  0
    4.3590    6.6410   28.2810 C   0  0  0  0  0  0  0  0  0  0  0  0
    4.6400    5.2780   28.5610 C   0  0  0  0  0  0  0  0  0  0  0  0
    5.5800    1.3340   30.6850 C   0  0  0  0  0  0  0  0  0  0  0  0
    5.0590    3.1310   28.5090 C   0  0  0  0  0  0  0  0  0  0  0  0
    5.2930    1.8150   28.2980 N   0  0  0  0  0  0  0  0  0  0  0  0
    4.8370    4.8190   29.8310 N   0  0  0  0  0  0  0  0  0  0  0  0
    5.0670    3.5920   29.8740 N   0  0  0  0  0  0  0  0  0  0  0  0
    9.0880    1.7360   32.4490 O   0  0  0  0  0  0  0  0  0  0  0  0
    8.7620    0.1090   30.9380 O   0  0  0  0  0  0  0  0  0  0  0  0
    3.4690   11.2300   27.6110 Br  0  0  0  0  0  0  0  0  0  0  0  0
  3  5  1  0  0  0  0
  4  6  2  0  0  0  0
  8  9  1  0  0  0  0
  8 10  1  0  0  0  0
  1 11  1  0  0  0  0
  3 12  2  0  0  0  0
  4 12  1  0  0  0  0
  2 13  1  0  0  0  0
  5 14  2  0  0  0  0
  6 14  1  0  0  0  0
  7 15  1  0  0  0  0
 14 15  1  0  0  0  0
  9 16  1  0  0  0  0
 11 16  1  0  0  0  0
 13 16  2  0  0  0  0
  7 17  2  0  0  0  0
 11 18  2  0  0  0  0
 17 18  1  0  0  0  0
 15 19  2  0  0  0  0
 13 20  1  0  0  0  0
 17 20  1  0  0  0  0
 19 20  1  0  0  0  0
 10 21  1  0  0  0  0
 10 22  2  0  0  0  0
 12 23  1  0  0  0  0
M  END
$$$$
