7WL4
  PyMOL2.5          3D                             0

 34 38  0  0  0  0  0  0  0  0999 V2000
    5.1600   11.5750   33.3570 C   0  0  0  0  0  0  0  0  0  0  0  0
    6.4470   11.9040   32.9060 C   0  0  0  0  0  0  0  0  0  0  0  0
    7.5510   11.2980   33.5340 C   0  0  0  0  0  0  0  0  0  0  0  0
    7.3340   10.3630   34.5660 C   0  0  0  0  0  0  0  0  0  0  0  0
    6.0840   10.0570   34.9530 C   0  0  0  0  0  0  0  0  0  0  0  0
    5.0490   10.6490   34.3560 C   0  0  0  0  0  0  0  0  0  0  0  0
    3.8870   10.2140   34.8760 C   0  0  0  0  0  0  0  0  0  0  0  0
    2.7360   10.7220   34.3560 C   0  0  0  0  0  0  0  0  0  0  0  0
    2.7960   11.7060   33.3170 C   0  0  0  0  0  0  0  0  0  0  0  0
    4.2470    9.3200   35.8470 C   0  0  0  0  0  0  0  0  0  0  0  0
    6.0680   11.2340   29.7720 C   0  0  0  0  0  0  0  0  0  0  0  0
    4.7650   11.5840   29.4550 C   0  0  0  0  0  0  0  0  0  0  0  0
    3.8920   10.6200   28.9540 C   0  0  0  0  0  0  0  0  0  0  0  0
    4.3250    9.3280   28.7760 C   0  0  0  0  0  0  0  0  0  0  0  0
    5.6200    8.9870   29.0770 C   0  0  0  0  0  0  0  0  0  0  0  0
    6.4880    9.9360   29.5700 C   0  0  0  0  0  0  0  0  0  0  0  0
    4.0090   12.0740   32.8330 N   0  0  0  0  0  0  0  0  0  0  0  0
    5.5910    9.2230   35.8940 N   0  0  0  0  0  0  0  0  0  0  0  0
    1.6950   12.2670   32.7220 N   0  0  0  0  0  0  0  0  0  0  0  0
    6.5880   12.8350   31.9110 N   0  0  0  0  0  0  0  0  0  0  0  0
    3.4930    8.6720   36.5860 O   0  0  0  0  0  0  0  0  0  0  0  0
    8.4960   11.6600   30.6520 O   0  0  0  0  0  0  0  0  0  0  0  0
    7.2960   13.5970   29.5070 O   0  0  0  0  0  0  0  0  0  0  0  0
    7.1920   12.3990   30.4400 S   0  0  0  0  0  0  0  0  0  0  0  0
    0.3940   11.6470   32.7790 C   0  0  0  0  0  0  0  0  0  0  0  0
   -0.7020   12.6830   32.6060 C   0  0  0  0  0  0  0  0  0  0  0  0
    0.6000   14.2060   31.5090 C   0  0  0  0  0  0  0  0  0  0  0  0
    1.8590   13.3550   31.7310 C   0  0  0  0  0  0  0  0  0  0  0  0
   -1.7230   14.2860   31.1310 C   0  0  0  0  0  0  0  0  0  0  0  0
    6.4710    8.3790   36.7370 C   0  0  0  0  0  0  0  0  0  0  0  0
    6.7170    7.0110   36.0960 C   0  0  0  0  0  0  0  0  0  0  0  0
   -0.6180   13.3720   31.3310 N   0  0  0  0  0  0  0  0  0  0  0  0
    4.3800   12.8300   29.6360 F   0  0  0  0  0  0  0  0  0  0  0  0
    3.5440    8.4010   28.3410 F   0  0  0  0  0  0  0  0  0  0  0  0
  1 17  4  0  0  0  0
  1  2  4  0  0  0  0
  2  3  4  0  0  0  0
  3  4  4  0  0  0  0
  4  5  4  0  0  0  0
  5  6  4  0  0  0  0
  5 18  4  0  0  0  0
  1  6  4  0  0  0  0
  6  7  4  0  0  0  0
  7  8  4  0  0  0  0
  8  9  4  0  0  0  0
  9 19  1  0  0  0  0
  7 10  4  0  0  0  0
 10 21  2  0  0  0  0
 11 24  1  0  0  0  0
 11 12  4  0  0  0  0
 12 13  4  0  0  0  0
 13 14  4  0  0  0  0
 14 15  4  0  0  0  0
 14 34  1  0  0  0  0
 15 16  4  0  0  0  0
 11 16  4  0  0  0  0
  9 17  4  0  0  0  0
 10 18  4  0  0  0  0
 18 30  1  0  0  0  0
 19 25  1  0  0  0  0
 19 28  1  0  0  0  0
  2 20  1  0  0  0  0
 20 24  1  0  0  0  0
 22 24  2  0  0  0  0
 23 24  2  0  0  0  0
 25 26  1  0  0  0  0
 26 32  1  0  0  0  0
 27 28  1  0  0  0  0
 30 31  1  0  0  0  0
 27 32  1  0  0  0  0
 29 32  1  0  0  0  0
 12 33  1  0  0  0  0
M  END
$$$$
